<?xml version="1.0" encoding="UTF-8"?>

<!-- generated on Wed Jun 10 20:30:39 2020 by Eclipse SUMO duarouter Version v1_6_0+0573-c5198cd671
<configuration xmlns:xsi="http://www.w3.org/2001/XMLSchema-instance" xsi:noNamespaceSchemaLocation="http://sumo.dlr.de/xsd/duarouterConfiguration.xsd">

    <input>
        <net-file value="sample.net.xml"/>
        <route-files value="sample.trips.xml"/>
    </input>

    <output>
        <output-file value="sample.rou.xml"/>
        <alternatives-output value="sample.rou.alt.xml"/>
    </output>

</configuration>
-->

<routes xmlns:xsi="http://www.w3.org/2001/XMLSchema-instance" xsi:noNamespaceSchemaLocation="http://sumo.dlr.de/xsd/routes_file.xsd">
    <vehicle id="0" depart="0.00">
        <route edges="94519174#1 94064875#9 94524344#1 94524344#2 94524344#3 94524344#4 94524344#5 94524344#6 94524344#7 94524344#8 -214274760#1 -214274760#0 -688819558 -672437156#20 -672437156#19 -672437156#18 -672437156#17 -672437156#16 -672437156#15 -672437156#14 -672437156#13 -672437156#12 -672437156#11 -672437156#10 -672437156#9 -672437156#8 -672437156#7 -672437156#6 -672437156#5 -672437156#4"/>
    </vehicle>
    <vehicle id="1" depart="1.00">
        <route edges="-94392303#4 -94392303#3 -94392303#2 -94392303#1 -94392303#0 -94392435#0 94392418#1 94392418#2 -672437156#8 -672437156#7 -672437156#6 -672437156#5 -672437156#4 -672437156#3 -672437156#2 -672437156#1 -672437156#0 672437155#0 672437155#1"/>
    </vehicle>
    <vehicle id="2" depart="2.00">
        <route edges="102161447 -102161447 98854945#3 98854945#4 98854951#0 98854951#1 -102161450#2 -102161450#1 -102161450#0 117083662#3 117083662#4 117083662#5 117083662#6 117083662#7 389635746#0 389635746#1 389635746#2 389635746#3 389635746#4 389635746#5 389635746#6 389635746#7 389635746#8 389635746#9 389635746#10 389635746#11 389635746#12 389635746#13 389635746#14 389635746#15 389635744 648471465#0 648471465#1 648471465#2 648471465#3 -94116946#1"/>
    </vehicle>
    <vehicle id="3" depart="3.00">
        <route edges="672437156#4 672437156#5 672437156#6 672437156#7 672437156#8 672437156#9 672437156#10 672437156#11 672437156#12 672437156#13 672437156#14 672437156#15 672437156#16 672437156#17 672437156#18 672437156#19 672437156#20 688819558 214274760#0 214274760#1 214274761#0 214274761#1 214274761#2 214274761#3 214274761#4 214274761#5 94524342#0 94524342#1 -759389175#4 -759389175#3 -759389175#2 -759389175#1 98170696#0 98170696#1 -98170710 102289264#3 102289264#4 98170691#0 98170713#0 -98170713#0"/>
    </vehicle>
    <vehicle id="4" depart="4.00">
        <route edges="98854935#2 -98854935#2 183870092#0 183870092#1 -102161448 -102161447 98854945#3 98854945#4 98854951#0 98854951#1 -102161450#2 -102161450#1 -102161450#0 117083662#3 117083662#4 117083662#5 117083662#6 117083662#7 389635746#0 389635746#1 389635746#2 389635746#3 389635746#4 389635746#5 389635746#6 389635746#7 389635746#8 101969209#0 101969209#1 101969209#2 -94072616#4 -94072616#3"/>
    </vehicle>
    <vehicle id="5" depart="5.00">
        <route edges="94392331#0 94392331#1 672437156#18 672437156#19 672437156#20 415221603#0 415221603#1 415221603#2 415221603#3 415221603#4 415221603#5 415221603#6 415221603#7 415221603#8 415221603#9 415221603#10 415221603#11 415221603#12 415221603#13"/>
    </vehicle>
    <vehicle id="6" depart="6.00">
        <route edges="209301329#0 209301329#1 209301329#2 -69518092#3 -69518092#2 -69518092#1 -69518092#0 672437156#6 672437156#7 672437156#8 -94392418#2 -94392418#1 94392418#1"/>
    </vehicle>
    <vehicle id="7" depart="7.00">
        <route edges="94072616#2 94072616#3 94072616#4 101969209#3 101969209#4 101969209#5 101969209#6 101969209#7 101969209#8 101969209#9 101969209#10 -94072630#1"/>
    </vehicle>
    <vehicle id="8" depart="8.00">
        <route edges="682818879#0 -98180561#2 -98180561#1 -98180561#0 -94524342#0 94524344#0 94524344#1 94524344#2 94524344#3 94524344#4 94524344#5 94524344#6 94524344#7 94524344#8 -214274760#1 -214274760#0 -688819558 688819558 688819561#0 688819561#1 688819561#2 688819561#3 688819561#4 683237303 415221602#0 415221602#1 415221602#2 415221602#3 102161450#1 102161450#2 -98854951#1 -98854951#0 -98854945#4 -98854947#0"/>
    </vehicle>
    <vehicle id="9" depart="9.00">
        <route edges="-692236963 94131613#2 94131613#3 94131613#4 94131613#5 -690099785#5 -690099785#4 -690099785#3 -690099785#2 -690099785#1 -690099785#0 -69518078#4 -69518078#3 -69518078#2 -69518078#1 -69518078#0 415221604#5 415221604#6 415221604#7 415221604#8 415221604#9 415221604#10 415221604#11 415221604#12 688819561#0 688819561#1 688819561#2 -442148675#6 -442148675#5"/>
    </vehicle>
    <vehicle id="10" depart="10.00">
        <route edges="94392502#5 -94392502#5 -94392502#4 -94392502#3 -94392502#2 -94392502#1 -94392502#0 672437155#2 672437155#3 213866015 94064887 213866020#0 213866020#1 213866020#2 213866020#3 213866020#4 213866020#5 213866022#1 213866022#2 213866022#3 213866022#4 213866022#5 213866022#6 213866022#7 213866022#8 101989994#0"/>
    </vehicle>
    <vehicle id="11" depart="11.00">
        <route edges="103269595#1 94515999#0 94515999#1 94515999#2 94515999#3 94515999#4 94515999#5 214274761#4 214274761#5 94524344#0 94524344#1 94524344#2 94524344#3 94524344#4 94524344#5 94524344#6 94524344#7 94524344#8 -214274760#1 -214274760#0 -688819558 688819558 688819561#0 688819561#1 688819561#2 688819561#3 688819561#4 683237303 213874109 389635746#0 389635746#1 389635746#2 389635746#3 389635746#4 389635746#5 -94072646#3 94093744#0 94093744#1 94093744#2 94072616#2"/>
    </vehicle>
    <vehicle id="12" depart="12.00">
        <route edges="-94392499#1 94392499#1 94392499#2 672437156#12 672437156#13 672437156#14 672437156#15 672437156#16 672437156#17 672437156#18 672437156#19 672437156#20 688819558 688819561#0 688819561#1 688819561#2 688819561#3 688819561#4 683237303 415221602#0 415221602#1 415221602#2 415221602#3 102161450#1 102161450#2 -98854951#1"/>
    </vehicle>
    <vehicle id="13" depart="13.00">
        <route edges="-94177762#0 672437156#8 672437156#9 672437156#10 672437156#11 672437156#12 672437156#13 672437156#14 672437156#15 672437156#16 672437156#17 672437156#18 672437156#19 672437156#20 688819558 214274760#0 214274760#1 94392362#0 94392362#1 94392362#2 94392362#3 94392362#4 94392362#5 94392362#6 94392398#0 94392398#1 94392398#2 94392398#3 94392398#4 94392398#5 94392398#6"/>
    </vehicle>
    <vehicle id="14" depart="14.00">
        <route edges="94131610#1 94131616#8 94131616#9 -690099785#0 -69518078#4 -69518078#3 -69518078#2 -69518078#1 -69518078#0 415221604#5 415221604#6 415221604#7 415221604#8 415221604#9 415221604#10 415221604#11 415221604#12 688819561#0 688819561#1 688819561#2 -442148675#6 -442148675#5 -442148675#4 -442148675#3 -442148675#2 -442148675#1 94392351#0 94392351#1 -94392351#1"/>
    </vehicle>
    <vehicle id="15" depart="15.00">
        <route edges="415221604#9 415221604#10 415221604#11 415221604#12 214274760#0 214274760#1 214274761#0"/>
    </vehicle>
    <vehicle id="16" depart="16.00">
        <route edges="69518096#12 -69518096#12 -69518096#11 -69518096#10 -69518096#9 -69518096#8 -69518096#7 -69518096#6 -69518096#5 94515914#0 94515928#2 94515928#3"/>
    </vehicle>
    <vehicle id="17" depart="17.00">
        <route edges="-102161450#1 -102161450#0 117083662#3 117083662#4 117083662#5 117083662#6 117083662#7 117083662#8 415221599 213866016#0 213866016#1 -94392449#3 -94392449#2 -94392449#1 -94392449#0 94392398#2 -94392441 442148675#3"/>
    </vehicle>
    <vehicle id="18" depart="18.00">
        <route edges="-94392343 -94392362#5 442148675#5 442148675#6 688819561#3 688819561#4 683237303 213874109 117083662#8 688819562#0 688819562#1 -94072649#7"/>
    </vehicle>
    <vehicle id="19" depart="19.00">
        <route edges="-94131617#1 -94131612#2 -94131612#1 94131610#1 94131616#8 94131616#9 -690099785#0 -69518078#4 -69518078#3 -69518078#2 -69518078#1 -69518078#0 415221604#5 415221604#6 415221604#7 415221604#8 415221604#9 415221604#10 415221604#11 415221604#12 688819561#0 688819561#1 -94519331#1 -94519331#0 -94392362#3 -94392485"/>
    </vehicle>
    <vehicle id="20" depart="20.00">
        <route edges="94064867#1 -212507050#2 -212507050#1 -212507050#0 117083662#5 117083662#6 117083662#7 117083662#8 688819562#0 688819562#1 -94072649#7 -94072649#6 -94072649#5 94072641#0 -94072626#2 -94072626#1 -94072626#0"/>
    </vehicle>
    <vehicle id="21" depart="21.00">
        <route edges="101989994#2 -101989994#2 -101989994#1 -101989994#0 213866022#9 213866022#10 94064867#0 94064867#1 -212507050#2 -212507050#1 -212507050#0 117083662#5 117083662#6 117083662#7 117083662#8 688819562#0 688819562#1 688819562#2 688819562#3 -672437156#20 -672437156#19 -672437156#18 -94392331#1 -94392331#0"/>
    </vehicle>
    <vehicle id="22" depart="22.00">
        <route edges="-37866179#4 -37866179#3 -37866179#2 -37866179#1 -37866179#0 213866021#5 213866021#6 648471466 213866015 648471464#0 -779234956#2 -779234956#1 -94392461#2 94392418#0 94392418#1 94392418#2 672437156#9 672437156#10 672437156#11 672437156#12 672437156#13 672437156#14 672437156#15 672437156#16 672437156#17 672437156#18 672437156#19 672437156#20 688819558 214274760#0 214274760#1 214274761#0 214274761#1 214274761#2 214274761#3 214274761#4 214274761#5 94524342#0 94524342#1 102422294 102422261#0"/>
    </vehicle>
    <vehicle id="23" depart="23.00">
        <route edges="94392331#0 94392331#1 672437156#18 672437156#19 672437156#20 688819558 214274760#0 214274760#1 214274761#0 214274761#1 214274761#2 214274761#3 214274761#4 214274761#5 39522594#0 39522594#1 39522594#2 39522594#3 39522594#4 39522594#5 39522594#6 280851452 94064882#0 94064882#1 94064882#2 689400080 415221590#0 415221590#1"/>
    </vehicle>
    <vehicle id="24" depart="24.00">
        <route edges="-94072638#3 94072638#3 101969189#2 101969189#3 101969189#4 213866022#7 213866022#8 213866022#9 213866022#10 94064867#0 94064867#1 -212507050#2 -212507050#1 -212507050#0 117083662#5 117083662#6 117083662#7 117083662#8 415221599 683237303 415221602#0 415221602#1 415221602#2 415221602#3 -102161450#0 102161450#0"/>
    </vehicle>
    <vehicle id="25" depart="25.00">
        <route edges="-98180561#1 -98180561#0 -94524342#0 94524344#0 94524344#1 94524344#2 94524344#3 94524344#4 94524344#5 94524344#6 94524344#7 94524344#8 -214274760#1 -214274760#0 -688819558 -672437156#20 -672437156#19 -672437156#18 -672437156#17 -672437156#16 -672437156#15 -672437156#14 -672437156#13 -672437156#12 -672437156#11 -672437156#10 -672437156#9 -672437156#8 -672437156#7 -672437156#6 69518092#0 69518092#1 69518092#2 -69518090#6 -69518090#5 -69518090#4 69518090#4"/>
    </vehicle>
    <vehicle id="26" depart="26.00">
        <route edges="-94072636#2 -94072636#1 -94072636#0 389635746#5 389635746#6 389635746#7 389635746#8 389635746#9 389635746#10 389635746#11 -94392303#3 -94392303#2 -94392303#1 94392314#0 94392499#0 94392499#1 94392499#2 672437156#12 672437156#13 672437156#14 672437156#15 672437156#16 672437156#17 672437156#18 672437156#19 672437156#20 688819558 214274760#0 214274760#1 214274761#0 214274761#1 214274761#2 214274761#3 214274761#4 214274761#5 94524342#0 94524342#1 -759389175#4 -759389175#3 -759389175#2 98170689#0 -98170689#0"/>
    </vehicle>
    <vehicle id="27" depart="27.00">
        <route edges="-69518078#1 69518078#1 69518078#2 69518078#3 69518078#4 690099785#0 690099785#1 690099785#2 -94131611#3 -94131611#2 -94131617#3 -94131617#2 94131615#0 -94131614#1 -94131614#0"/>
    </vehicle>
    <vehicle id="28" depart="28.00">
        <route edges="-94116963#1 -94116963#0 -220557004#1 -220557004#0 -94116987#1 -94116987#0 213866021#6 648471466 213866015 648471464#0 648471464#1 648471464#2 648471464#3 648471464#4 648471464#5 94072643#0 94072643#1 94072643#2 94072643#3"/>
    </vehicle>
    <vehicle id="29" depart="29.00">
        <route edges="415221590#7 415221590#8 415221590#9 415221590#10 415221590#11 213874109 117083662#8 688819562#0 688819562#1 688819562#2 688819562#3 688819558 214274760#0 214274760#1 214274761#0 214274761#1 214274761#2 214274761#3 -94515999#5 -94515999#4 -94515999#3 -94515999#2 -94515999#1 -94515999#0 -103269595#1 -103269595#0 -69518096#14 -69518096#13 -69518096#12 -69518096#11 -69518096#10 94515924#0 94515924#1 94515924#2"/>
    </vehicle>
    <vehicle id="30" depart="30.00">
        <route edges="-94392499#1 94392499#1 94392499#2 672437156#12 672437156#13 672437156#14 672437156#15 672437156#16 672437156#17 672437156#18 672437156#19 672437156#20 688819558 688819561#0 688819561#1 688819561#2 688819561#3 688819561#4 683237303 415221602#0 415221602#1 415221602#2 415221602#3 102161450#1 102161450#2 -98854951#1 98854951#1"/>
    </vehicle>
    <vehicle id="31" depart="31.00">
        <route edges="94515999#0 94515999#1 94515999#2 94515999#3 94515999#4 94515999#5 214274761#4 214274761#5 94524344#0 94524344#1 94524344#2 94524344#3 94524344#4 94524344#5 94524344#6 94524344#7 94524344#8 -214274760#1 -214274760#0 -688819558 688819558 688819561#0 688819561#1 688819561#2 688819561#3 688819561#4 683237303 213874109 389635746#0 389635746#1 389635746#2 -101989980#4 -101989980#3 -94072622"/>
    </vehicle>
    <vehicle id="32" depart="32.00">
        <route edges="-94392452#0 94064875#9 94524344#1 94524344#2 94524344#3 94524344#4 94524344#5 94524344#6 94524344#7 94524344#8 -214274760#1 -214274760#0 -688819558 688819558 688819561#0 688819561#1 688819561#2 688819561#3 688819561#4 683237303 213874109 389635746#0 389635746#1 389635746#2 389635746#3 389635746#4 389635746#5 389635746#6 389635746#7 389635746#8 101969209#0 101969209#1 101969209#2 101969209#3 101969209#4"/>
    </vehicle>
    <vehicle id="33" depart="33.00">
        <route edges="94072616#0 -94072616#0 101969189#0 94093746#0 94093746#1 94093746#2 213866022#5 213866022#6 101969189#5 101969189#6 101969189#7 -101969189#7"/>
    </vehicle>
    <vehicle id="34" depart="34.00">
        <route edges="-94093744#1 -94093744#0 -94072646#2 -94072646#1 -94072646#0 94072636#3 94072636#4 101989971#0 -101989968 94064867#1 -212507050#2 -212507050#1 -212507050#0 117083662#5 117083662#6 117083662#7 117083662#8 415221599 213866016#0 213866016#1 213866016#2 213866016#3 213866016#4 -94392351#5 -94392351#4 -94392351#3 -94392351#2"/>
    </vehicle>
    <vehicle id="35" depart="35.00">
        <route edges="-94515973#2 94515928#3 -94515921#0 -69518096#2 -69518096#1 415221604#4 415221604#5 415221604#6 415221604#7 415221604#8 415221604#9 415221604#10 415221604#11 415221604#12 214274760#0 214274760#1 214274761#0 214274761#1 214274761#2 214274761#3 214274761#4 214274761#5 39522594#0 39522594#1 39522594#2 39522594#3 39522594#4 39522594#5 39522594#6 280851452 94064882#0 94064882#1 94064882#2 689400080 415221590#0 415221590#1"/>
    </vehicle>
    <vehicle id="36" depart="36.00">
        <route edges="-94515999#3 94515999#3 94515999#4 94515999#5 214274761#4 214274761#5 94524344#0 94524344#1 94524344#2 94524344#3 94524344#4 94524344#5 94524344#6 94524344#7 94524344#8 -214274760#1 -214274760#0 -688819558 688819558 688819561#0 688819561#1 688819561#2 688819561#3 688819561#4 683237303 213874109 389635746#0 389635746#1 389635746#2 389635746#3 389635746#4 389635746#5 389635746#6 389635746#7 389635746#8 389635746#9 389635746#10 -94086886"/>
    </vehicle>
    <vehicle id="37" depart="37.00">
        <route edges="183870092#1 -102161448 102161448 -183870092#1 -183870092#0 -98854935#1 -98854945#0 98854953#3 98854962#0 98854962#1 98854962#2 58064942#2 689400079 689400081#0 689400081#1 280851448 -39522594#6 -39522594#5 -39522594#4 -39522594#3 -39522594#2 -39522594#1 -39522594#0 94524342#0 94524342#1 -759389175#4 -759389175#3 -102422285 98170687#0 98170687#1 98170712#1 -98170697#2 -98170697#1 98170704"/>
    </vehicle>
    <vehicle id="38" depart="38.00">
        <route edges="-690099785#2 -690099785#1 -690099785#0 -69518078#4 -69518078#3 -69518078#2 -69518078#1 -69518078#0 415221604#5 415221604#6 415221604#7 415221604#8 415221604#9 415221604#10 415221604#11 415221604#12 688819561#0 688819561#1 688819561#2 -442148675#6 -442148675#5 -442148675#4 -442148675#3 -442148675#2 -94392367#1 94392367#1"/>
    </vehicle>
    <vehicle id="39" depart="39.00">
        <route edges="415221590#0 415221590#1 415221590#2 415221590#3 415221590#4 415221590#5 415221590#6 415221590#7 415221590#8 415221590#9 415221590#10 415221590#11 213874109 389635746#0 389635746#1 389635746#2 389635746#3 389635746#4 389635746#5 389635746#6 389635746#7 389635746#8 389635746#9 389635746#10 389635746#11 389635746#12 389635746#13 389635746#14 389635746#15 389635744 648471465#0 648471465#1 648471465#2 648471465#3 648471465#4"/>
    </vehicle>
    <vehicle id="40" depart="40.00">
        <route edges="624198279#2 -94518685#2 -94518685#1 -94518685#0 415221604#7 415221604#8 415221604#9 415221604#10 415221604#11 415221604#12 -688819558 -672437156#20 -672437156#19 -672437156#18 -672437156#17 -672437156#16 -672437156#15 -672437156#14 -672437156#13 -672437156#12 -672437156#11 -672437156#10 -672437156#9 -672437156#8 -672437156#7 -672437156#6 69518092#0 69518092#1 69518092#2 -69518090#6 -69518090#5 -69518090#4 -69518090#3 -69518090#2 -69518090#1 -69518090#0 69518090#0 69518090#1"/>
    </vehicle>
    <vehicle id="41" depart="41.00">
        <route edges="-94117016#0 -94116987#0 213866021#6 648471466 213866015 648471464#0 -779234956#2 -779234956#1 -94392461#2 94392418#0 94392418#1 94392418#2 672437156#9 672437156#10 672437156#11 672437156#12 672437156#13 672437156#14 -94072615#1 -94072615#0 205399508#0"/>
    </vehicle>
    <vehicle id="42" depart="42.00">
        <route edges="-94392446 -94392398#0 -94392362#6 -94392362#5 -94392362#4 -94392362#3 -94392362#2 -94392362#1 -94392362#0 -214274760#1 -214274760#0 -688819558 -672437156#20 -672437156#19 -672437156#18 -94392331#1 -94392331#0 -94072649#1"/>
    </vehicle>
    <vehicle id="43" depart="43.00">
        <route edges="94086880 389635746#15 389635744 648471466 213866015 648471464#0 -779234956#2 -779234956#1 -94392461#2 94392418#0 94392418#1 94392418#2 672437156#9 672437156#10 672437156#11 672437156#12 672437156#13 672437156#14 672437156#15 672437156#16 94072649#0 94072649#1 94072649#2 94072649#3 94072649#4"/>
    </vehicle>
    <vehicle id="44" depart="44.00">
        <route edges="94392499#0 94392499#1 94392499#2 672437156#12 672437156#13 672437156#14 672437156#15 672437156#16 672437156#17 672437156#18 672437156#19 672437156#20 688819558 688819561#0 688819561#1 688819561#2 688819561#3 688819561#4 683237303 415221602#0 415221602#1 415221602#2 415221602#3 415221602#4 415221602#5 23630652#1 23630652#2 23630652#3 23630652#4 -101989994#2 -101989994#1 -101989994#0"/>
    </vehicle>
    <vehicle id="45" depart="45.00">
        <route edges="183870178#3 -183870178#3 -183870178#2 -183870178#1 -183870178#0 415221590#10 415221590#11 213874109 117083662#8 688819562#0 688819562#1 688819562#2 688819562#3 688819558 214274760#0 214274760#1 -214274760#1"/>
    </vehicle>
    <vehicle id="46" depart="46.00">
        <route edges="213866022#10 94064867#0 94064867#1 -212507050#2 -212507050#1 -212507050#0 117083662#5 117083662#6 117083662#7 117083662#8 688819562#0 688819562#1 688819562#2 688819562#3 415221603#0 415221603#1 415221603#2 415221603#3 415221603#4 415221603#5 415221603#6 415221603#7 69518078#1 69518078#2 69518078#3 69518078#4 690099785#0 -94131616#9 -94131616#8 -94131610#1 -94131610#0 -94131616#5 -94131616#4 -94131616#3 -94131616#2 -94131616#1 94131613#0"/>
    </vehicle>
    <vehicle id="47" depart="47.00">
        <route edges="-94392431#1 94392431#1 -442148675#0 -94392383#1 -94392383#0 94524344#5 94524344#6 94524344#7 94524344#8 -214274760#1 -214274760#0 -688819558 -672437156#20 -672437156#19 -672437156#18 -672437156#17 -672437156#16 -672437156#15 -672437156#14 -672437156#13 -672437156#12 -94392499#2 -94392499#1 -94392499#0 -94392314#0 94392303#1 94392303#2 94392303#3 389635746#12 389635746#13 389635746#14 389635746#15 389635744 648471465#0 648471465#1 648471465#2 648471465#3"/>
    </vehicle>
    <vehicle id="48" depart="48.00">
        <route edges="-442148675#4 442148675#4 -94392362#4 -94392362#3 -94392362#2 -94392362#1 -94392362#0 214274761#0 214274761#1 214274761#2 214274761#3 214274761#4 214274761#5 94524342#0 94524342#1 -759389175#4 -759389175#3 -759389175#2 98170689#0 98170689#1 -98170689#1"/>
    </vehicle>
    <vehicle id="49" depart="49.00">
        <route edges="94392502#6 -94177762#1 -94177762#0 -672437156#7 -672437156#6 69518092#0 69518092#1"/>
    </vehicle>
    <vehicle id="50" depart="50.00">
        <route edges="-94392301#3 -94392301#2 94392497 94392452#1 94392369 94524344#3 94524344#4 94524344#5 94524344#6 94524344#7 94524344#8 94392362#0 -94392362#0"/>
    </vehicle>
    <vehicle id="51" depart="51.00">
        <route edges="94515928#0 94515928#1 94515928#2 94515928#3 -94515921#0 -69518096#2 -69518096#1 415221604#4 69518078#0 415221603#8 69518073#0 69518073#1 94136491#0 94136491#1"/>
    </vehicle>
    <vehicle id="52" depart="52.00">
        <route edges="213866021#1 213866021#2 213866021#3 213866021#4 213866021#5 213866021#6 648471466 213866015 648471464#0 -779234956#2 -779234956#1 -94392461#2 94392418#0 94392418#1 94392418#2 672437156#9 672437156#10 672437156#11 672437156#12 672437156#13 672437156#14 672437156#15 672437156#16 672437156#17 672437156#18 672437156#19 672437156#20 688819558 214274760#0 214274760#1 214274761#0 214274761#1 214274761#2 214274761#3 -94515999#5 -94515999#4 -94515999#3 -94515999#2 -94515999#1 -94515999#0 -103269595#1 -103269595#0 -69518096#14 -69518096#13 -69518096#12 -69518096#11"/>
    </vehicle>
    <vehicle id="53" depart="53.00">
        <route edges="415221590#5 415221590#6 415221590#7 415221590#8 415221590#9 415221590#10 415221590#11 213874109 117083662#8 415221599 213866016#0 213866016#1 213866016#2 213866016#3 213866016#4 213866016#5 213866016#6 213866016#7 -94392388#6 -94392388#5 -94392388#4 -94392388#3 -94392388#2 -94392388#1 94392301#0 94392301#1 94392301#2 94392301#3 -94392301#3"/>
    </vehicle>
    <vehicle id="54" depart="54.00">
        <route edges="94392418#1 94392418#2 672437156#9 672437156#10 672437156#11 672437156#12 672437156#13 672437156#14 672437156#15 672437156#16 672437156#17 672437156#18 672437156#19 672437156#20 688819558 214274760#0 214274760#1 214274761#0 214274761#1 214274761#2 214274761#3 -94515999#5 -94515999#4 -94515999#3 -94515999#2 -94515999#1 -94515999#0 -103269595#1 -103269595#0 -69518096#14 -69518096#13 -69518096#12 -69518096#11 -69518096#10 94515924#0 94515924#1 94515924#2"/>
    </vehicle>
    <vehicle id="56" depart="56.00">
        <route edges="-94177762#1 -94177762#0 672437156#8 672437156#9 672437156#10 672437156#11 672437156#12 -94392427#1 -94392427#0 94392470#1 94392470#2"/>
    </vehicle>
    <vehicle id="57" depart="57.00">
        <route edges="94392461#0 -94392461#0 648471464#2 648471464#3 648471464#4 648471464#5 648471464#6 648471464#7 648471464#8 648471464#9 415221599 683237303 415221602#0 415221602#1 102161441#0 102161441#1 102161441#2 -102161441#2"/>
    </vehicle>
    <vehicle id="58" depart="58.00">
        <route edges="94392303#3 -94392303#3 -94392303#2 -94392303#1 94392314#0 94392499#0 94392499#1 94392499#2 672437156#12 672437156#13 672437156#14 672437156#15 672437156#16 672437156#17 672437156#18 672437156#19 672437156#20 688819558 214274760#0 214274760#1 214274761#0 214274761#1 214274761#2 214274761#3 214274761#4 214274761#5 -682818878#1 -682818878#0 94515953"/>
    </vehicle>
    <vehicle id="59" depart="59.00">
        <route edges="-94515973#1 -94515973#0 94515973#0 94515973#1 94515928#3 -94515921#0 -69518096#2 -69518096#1 415221604#4 415221604#5 415221604#6 415221604#7 415221604#8 415221604#9 415221604#10 415221604#11 415221604#12 688819561#0 688819561#1 688819561#2 688819561#3 688819561#4 683237303 213874109 389635746#0 389635746#1 389635746#2 389635746#3 389635746#4 389635746#5 -94072646#3 -94072646#2"/>
    </vehicle>
    <vehicle id="60" depart="60.00">
        <route edges="-94131615#2 -94131615#1 -94131615#0 94131617#2 94131617#3 94131611#2 94131611#3 -690099785#2 -690099785#1 -690099785#0 -69518078#4 -69518078#3 -69518078#2 -69518078#1 -69518078#0 415221604#5 415221604#6 415221604#7 415221604#8 415221604#9 415221604#10 415221604#11 415221604#12 688819561#0 688819561#1 688819561#2 688819561#3 688819561#4 683237303 213874109 389635746#0 389635746#1 389635746#2 -101989980#4 94072639#0"/>
    </vehicle>
    <vehicle id="61" depart="61.00">
        <route edges="102422261#1 -94524342#1 -94524342#0 94524344#0 94524344#1 94524344#2 94524344#3 94524344#4 94524344#5 94524344#6 94524344#7 94524344#8 -214274760#1 -214274760#0 -688819558 -672437156#20 -672437156#19 -672437156#18 -672437156#17 -672437156#16 -672437156#15 -672437156#14 -672437156#13 -672437156#12 -672437156#11 -672437156#10 -672437156#9 -94392418#2 -94392418#1 -94392418#0 94392418#0"/>
    </vehicle>
    <vehicle id="62" depart="62.00">
        <route edges="94392388#1 -94392388#1 -94392388#0 94392452#3 94519175 94524344#4 94524344#5 94524344#6 94524344#7 94524344#8 -214274760#1 -214274760#0 -688819558 415221603#0 415221603#1 415221603#2 415221603#3 415221603#4 415221603#5 415221603#6 415221603#7 415221603#8 415221603#9 69518096#0 415221604#4"/>
    </vehicle>
    <vehicle id="63" depart="63.00">
        <route edges="-220557004#1 -220557004#0 -94116987#1 -94116987#0 213866021#6 648471466 213866015 648471464#0 -779234956#2 -779234956#1 -94392461#2 94392418#0 94392418#1 94392418#2 672437156#9 672437156#10 672437156#11 672437156#12 672437156#13 672437156#14 672437156#15 672437156#16 672437156#17 672437156#18 672437156#19 672437156#20 688819558 214274760#0 214274760#1 214274761#0 214274761#1 214274761#2 214274761#3 214274761#4 214274761#5 94524342#0 94524342#1 -759389175#4 759389175#4"/>
    </vehicle>
    <vehicle id="64" depart="64.00">
        <route edges="415221602#5 23630652#1 117083662#1 117083662#2 117083662#3 117083662#4 117083662#5 117083662#6 117083662#7 117083662#8 688819562#0 688819562#1 688819562#2 688819562#3 -672437156#20 -672437156#19 -672437156#18 -672437156#17 -672437156#16 -672437156#15 -672437156#14 -672437156#13 -672437156#12 -672437156#11 -672437156#10 -672437156#9 -672437156#8 94177762#0 94177762#1 -94392502#6 -94392502#5 -94392502#4 -94392502#3 -94392502#2 -94392502#1 -94392502#0 672437155#2 672437155#3"/>
    </vehicle>
    <vehicle id="65" depart="65.00">
        <route edges="101969189#7 -101969189#7 -101969189#6 -101969189#5 213866022#7 213866022#8 213866022#9 213866022#10 94064867#0 94064867#1 -212507050#2 -212507050#1 -212507050#0 117083662#5 117083662#6 117083662#7 117083662#8 415221599 213866016#0 213866016#1 213866016#2 213866016#3 -94392398#6 -94392398#5 94392398#5"/>
    </vehicle>
    <vehicle id="66" depart="66.00">
        <route edges="101989980#3 94072639#0 -94072633 94068630#2 94068628#1 94068628#2 117083662#6 117083662#7 117083662#8 415221599 213866016#0 213866016#1 213866016#2 213866016#3 213866016#4 -94392351#5 -94392351#4 -94392351#3 -94392351#2 -94392351#1 -94392351#0 -442148675#0 -94392383#1 94392452#7"/>
    </vehicle>
    <vehicle id="67" depart="67.00">
        <route edges="-94392452#2 94392369 94524344#3 94524344#4 94524344#5 94524344#6 94524344#7 94524344#8 -214274760#1 -214274760#0 -688819558 -672437156#20 -672437156#19 -672437156#18 -672437156#17 -672437156#16 -672437156#15 -672437156#14 -672437156#13 -94392427#1 94392427#1"/>
    </vehicle>
    <vehicle id="68" depart="68.00">
        <route edges="94515928#3 -94515928#3 -94515928#2 -94515914#0 69518096#5 69518096#6 69518096#7 69518096#8 69518096#9 69518096#10 69518096#11 69518096#12 69518096#13 69518096#14 69518096#15 -69518096#15"/>
    </vehicle>
    <vehicle id="69" depart="69.00">
        <route edges="-690099785#10 -690099785#9 -690099785#8 -690099785#7 -690099785#6 -690099785#5 -690099785#4 -690099785#3 -690099785#2 -690099785#1 -690099785#0 -69518078#4 -69518078#3 -69518078#2 -69518078#1 -69518078#0 415221604#5 415221604#6 415221604#7 415221604#8 415221604#9 415221604#10 415221604#11 415221604#12 688819561#0 688819561#1 688819561#2 688819561#3 688819561#4 683237303 415221602#0 415221602#1 415221602#2 415221602#3 -102161450#0"/>
    </vehicle>
    <vehicle id="70" depart="70.00">
        <route edges="94515921#0 -94515921#0 -69518096#2 -69518096#1 415221604#4 415221604#5 415221604#6 415221604#7 415221604#8 415221604#9 415221604#10 415221604#11 415221604#12 214274760#0 214274760#1 214274761#0 214274761#1 214274761#2 214274761#3 214274761#4 214274761#5 94524342#0 94524342#1 -759389175#4 -759389175#3 -759389175#2 -759389175#1 98170696#0 98170696#1 -98170710 102289264#3 98170705 213874111#5 213874111#6 213874111#7 213874111#8 94059602#0 94059602#1 94059602#2 94059602#3 155609363#0"/>
    </vehicle>
    <vehicle id="71" depart="71.00">
        <route edges="-672437156#7 672437156#7 672437156#8 672437156#9 672437156#10 672437156#11 672437156#12 672437156#13 672437156#14 672437156#15 672437156#16 672437156#17 672437156#18 672437156#19 672437156#20 688819558 214274760#0 214274760#1 214274761#0 214274761#1 214274761#2 214274761#3 -94515999#5 -94515999#4 -94515999#3 -94515999#2 -94515999#1 -94515999#0 -103269595#1 -103269595#0 -69518096#14 -69518096#13 -69518096#12 -69518096#11 -69518096#10 94515924#0 94515924#1 94515924#2"/>
    </vehicle>
    <vehicle id="72" depart="72.00">
        <route edges="264458983#0 -37866179#4 -37866179#3 -37866179#2 -37866179#1 -37866179#0 213866021#5 213866021#6 648471466 213866015 648471464#0 648471464#1 648471464#2 648471464#3 648471464#4 648471464#5 648471464#6 648471464#7 648471464#8 648471464#9 415221599 213866016#0 213866016#1 213866016#2 213866016#3 213866016#4 -94392351#5"/>
    </vehicle>
    <vehicle id="73" depart="73.00">
        <route edges="-94072644#2 -94072649#5 -94072649#4 -94072649#3 -94072649#2 -94072649#1 -94072649#0"/>
    </vehicle>
    <vehicle id="74" depart="74.00">