<?xml version="1.0" encoding="UTF-8"?>

<!-- generated on Sat Jul 25 10:40:38 2020 by Eclipse SUMO polyconvert Version 642d16a7a5
<configuration xmlns:xsi="http://www.w3.org/2001/XMLSchema-instance" xsi:noNamespaceSchemaLocation="http://sumo.dlr.de/xsd/polyconvertConfiguration.xsd">

    <input>
        <net-file value="osm.net.xml"/>
        <osm-files value="osm_bbox.osm.xml"/>
        <osm.keep-full-type value="true"/>
        <type-file value="/home/tomoya/sumo/data/typemap/osmPolyconvert.typ.xml"/>
    </input>

    <output>
        <output-file value="osm.poly.xml"/>
    </output>

    <processing>
        <poi-layer-offset value="5"/>
    </processing>

    <report>
        <verbose value="true"/>
    </report>

</configuration>
-->

<additional xmlns:xsi="http://www.w3.org/2001/XMLSchema-instance" xsi:noNamespaceSchemaLocation="http://sumo.dlr.de/xsd/additional_file.xsd">
    <location netOffset="-381960.93,-3951189.10" convBoundary="-2337.38,-4290.19,7255.62,3969.81" origBoundary="139.669340,35.658965,139.775745,35.733383" projParameter="+proj=utm +zone=54 +ellps=WGS84 +datum=WGS84 +units=m +no_defs"/>

    <poly id="103269594" type="amenity.parking" color="184,184,179" fill="1" layer="-1.00" shape="654.166383,568.653698 688.400667,564.751086 687.348479,550.864504 652.343809,554.677458 654.166383,568.653698"/>
    <poly id="103269596" type="building.yes" color="255,230,230" fill="1" layer="-1.00" shape="806.472183,774.028521 776.907880,776.571069 776.485053,765.793515 805.660631,762.590474 806.472183,774.028521"/>
    <poly id="103269598" type="amenity.place_of_worship" color="237,199,199" fill="1" layer="-1.00" shape="671.053605,752.986379 698.795228,749.458034 695.672549,717.205345 694.618245,701.787850 693.193595,686.419623 665.988297,689.463858 668.304578,716.834846 670.494759,746.304224 671.053605,752.986379"/>
    <poly id="103270927" type="amenity.school" color="237,199,199" fill="1" layer="-1.00" shape="639.100427,463.262404 637.759449,452.863087 624.294771,454.239222 625.516684,464.529174 639.100427,463.262404"/>
    <poly id="103270927#1" type="building.yes" color="255,230,230" fill="1" layer="-1.00" shape="639.100427,463.262404 637.759449,452.863087 624.294771,454.239222 625.516684,464.529174 639.100427,463.262404"/>
    <poly id="103275146" type="amenity.grave_yard" color="237,199,199" fill="1" layer="-1.00" shape="677.165395,395.874999 683.362852,395.793102 681.039283,365.815185 699.395489,363.442636 697.401660,341.980368 690.688929,319.504356 687.083443,305.507298 681.743277,273.228461 669.008423,215.498421 667.625314,208.072787 651.838301,210.411431 665.922031,289.401455 671.572812,312.313047 663.242188,313.266267 660.523693,317.772981 656.695380,319.099361 657.024416,328.247365 649.773386,329.408205 653.379013,359.158389 658.336768,362.498647 659.167514,376.743150 674.742810,374.839962 677.165395,395.874999"/>
    <poly id="103275148" type="amenity.parking" color="184,184,179" fill="1" layer="-1.00" shape="772.156498,524.339510 777.840008,523.033056 776.251753,516.508710 771.044960,517.598089 772.156498,524.339510"/>
    <poly id="103275149" type="amenity.parking" color="184,184,179" fill="1" layer="-1.00" shape="806.337698,740.538233 817.995448,738.720272 818.323984,727.278269 804.430606,729.735900 806.337698,740.538233"/>
    <poly id="103275150" type="leisure.park" color="207,245,201" fill="1" layer="-2.00" shape="796.677123,679.794312 823.697525,675.077764 819.467390,648.009361 792.191244,652.551796 796.677123,679.794312"/>
    <poly id="103275151" type="amenity.parking" color="184,184,179" fill="1" layer="-1.00" shape="775.388087,571.711563 774.200349,561.254738 759.505438,563.334732 761.645932,573.989754 775.388087,571.711563"/>
    <poly id="103275152" type="amenity.parking" color="184,184,179" fill="1" layer="-1.00" shape="718.851181,757.313672 726.951590,756.773998 726.651952,745.051847 718.226426,745.640192 718.851181,757.313672"/>
    <poly id="103275157" type="amenity.place_of_worship" color="237,199,199" fill="1" layer="-1.00" shape="719.314307,594.428916 718.493782,586.430060 731.338516,584.718344 732.703326,592.820948 729.903389,593.212935 728.294602,593.356218 719.314307,594.428916"/>
    <poly id="103280984" type="amenity.parking" color="184,184,179" fill="1" layer="-1.00" shape="697.453445,339.050932 709.887190,337.710723 708.565760,320.566136 693.709216,322.770390 695.927665,331.782492 697.453445,339.050932"/>
    <poly id="155171902" type="building.yes" color="255,230,230" fill="1" layer="-1.00" shape="1511.917126,1349.161051 1512.660013,1351.991297 1523.687935,1349.117503 1522.211796,1343.501257 1518.100032,1344.575844 1517.222054,1341.103934 1512.487398,1342.286543 1511.784065,1339.023121 1498.791319,1341.789596 1500.873319,1351.513662 1511.917126,1349.161051"/>
    <poly id="155171904" type="building.yes" color="255,230,230" fill="1" layer="-1.00" shape="1634.601842,1319.074042 1636.126690,1327.030442 1632.810144,1330.790326 1635.241908,1333.387657 1639.555648,1331.844540 1643.315409,1329.454471 1645.747614,1328.634929 1645.358918,1325.212062 1657.661259,1322.920792 1656.136575,1314.975480 1634.601842,1319.074042"/>
    <poly id="155171906" type="building.yes" color="255,230,230" fill="1" layer="-1.00" shape="1864.144884,1277.982699 1869.325262,1292.880341 1874.459382,1291.104732 1872.344113,1285.030863 1878.703331,1282.839853 1881.015972,1289.476921 1886.924753,1287.436028 1881.537979,1271.975298 1864.144884,1277.982699"/>
    <poly id="155171909" type="building.yes" color="255,230,230" fill="1" layer="-1.00" shape="1633.560489,1342.473280 1639.380265,1338.480890 1639.428987,1338.746501 1642.606369,1337.484533 1647.700896,1345.116793 1661.449015,1339.922203 1657.200151,1323.636835 1645.911009,1325.914823 1646.809494,1333.025219 1640.047959,1334.888861 1638.360184,1332.448181 1630.406268,1337.910739 1633.560489,1342.473280"/>
    <poly id="155171924" type="building.yes" color="255,230,230" fill="1" layer="-1.00" shape="1916.926753,1338.540609 1923.503032,1340.495841 1924.214082,1338.134674 1917.637801,1336.179441 1916.926753,1338.540609"/>
    <poly id="155171928" type="building.yes" color="255,230,230" fill="1" layer="-1.00" shape="1909.192416,1353.884542 1914.117177,1353.398564 1914.162479,1348.561111 1908.597411,1347.824061 1909.192416,1353.884542"/>
    <poly id="155171930" type="building.yes" color="255,230,230" fill="1" layer="-1.00" shape="1833.273827,1331.958282 1838.681297,1331.022196 1837.292183,1323.052898 1831.875662,1323.989103 1833.273827,1331.958282"/>
    <poly id="155171933" type="building.yes" color="255,230,230" fill="1" layer="-1.00" shape="1629.033171,1326.346887 1634.901558,1325.371352 1634.312382,1321.840176 1628.443993,1322.815712 1629.033171,1326.346887"/>
    <poly id="155171935" type="building.yes" color="255,230,230" fill="1" layer="-1.00" shape="1852.694653,1370.975878 1851.752109,1359.794649 1848.299590,1360.083894 1849.251184,1371.265005 1852.694653,1370.975878"/>
    <poly id="155171944" type="building.yes" color="255,230,230" fill="1" layer="-1.00" shape="1894.563031,1331.145195 1901.713124,1329.931196 1900.606291,1323.478037 1893.456193,1324.692037 1894.563031,1331.145195"/>
    <poly id="155171948" type="building.yes" color="255,230,230" fill="1" layer="-1.00" shape="1766.973374,1375.015761 1784.933316,1372.240104 1779.343493,1336.447291 1761.383479,1339.222957 1766.973374,1375.015761"/>
    <poly id="155171949" type="building.yes" color="255,230,230" fill="1" layer="-1.00" shape="1808.352925,1255.715634 1813.580703,1252.108301 1810.638972,1247.875728 1805.411048,1251.471972 1808.352925,1255.715634"/>
    <poly id="155171953" type="building.yes" color="255,230,230" fill="1" layer="-1.00" shape="1873.326394,1351.114389 1884.624162,1348.803297 1883.551664,1343.592187 1872.253744,1345.892189 1873.326394,1351.114389"/>
    <poly id="155171954" type="building.yes" color="255,230,230" fill="1" layer="-1.00" shape="1607.517938,1376.084876 1611.081387,1374.595959 1603.601049,1356.833150 1600.037594,1358.322070 1607.517938,1376.084876"/>
    <poly id="155171955" type="building.yes" color="255,230,230" fill="1" layer="-1.00" shape="1915.430480,1258.729794 1919.786985,1271.519338 1925.714551,1270.221506 1939.187835,1256.444415 1915.430480,1258.729794"/>
    <poly id="155171956" type="building.yes" color="255,230,230" fill="1" layer="-1.00" shape="1827.832494,1342.058229 1839.704786,1340.782368 1838.912691,1333.493067 1827.040389,1334.768928 1827.832494,1342.058229"/>
    <poly id="155171957" type="building.yes" color="255,230,230" fill="1" layer="-1.00" shape="1529.093888,1334.968607 1541.461486,1334.895064 1541.410100,1326.841686 1529.051537,1326.915110 1529.093888,1334.968607"/>
    <poly id="155171963" type="building.yes" color="255,230,230" fill="1" layer="-1.00" shape="1730.400393,1356.957196 1728.721703,1346.229367 1725.407783,1346.738719 1727.086476,1357.466548 1730.400393,1356.957196"/>
    <poly id="155171974" type="building.yes" color="255,230,230" fill="1" layer="-1.00" shape="1852.805182,1279.861708 1859.516726,1276.246077 1856.800218,1271.245077 1850.088671,1274.860709 1852.805182,1279.861708"/>
    <poly id="155171975" type="building.yes" color="255,230,230" fill="1" layer="-1.00" shape="1901.548760,1267.564466 1906.546717,1266.445187 1905.653165,1262.463137 1900.655061,1263.571325 1901.548760,1267.564466"/>
    <poly id="155171976" type="building.yes" color="255,230,230" fill="1" layer="-1.00" shape="1941.624551,1364.598468 1939.010334,1352.884408 1933.741612,1354.051586 1936.355835,1365.765645 1941.624551,1364.598468"/>
    <poly id="155171977" type="building.yes" color="255,230,230" fill="1" layer="-1.00" shape="1737.090411,1363.448136 1742.810262,1362.186180 1741.435847,1356.036072 1735.715992,1357.298029 1737.090411,1363.448136"/>
    <poly id="155171978" type="building.yes" color="255,230,230" fill="1" layer="-1.00" shape="1864.390345,1275.305901 1873.249826,1271.961706 1868.002249,1258.152125 1859.133709,1261.496443 1864.390345,1275.305901"/>
    <poly id="155171980" type="building.yes" color="255,230,230" fill="1" layer="-1.00" shape="1894.814549,1347.604983 1904.160868,1346.206942 1902.763741,1336.928682 1893.417412,1338.326725 1894.814549,1347.604983"/>
    <poly id="155171982" type="building.yes" color="255,230,230" fill="1" layer="-1.00" shape="1899.058252,1231.420435 1904.954743,1228.436751 1901.314787,1221.317823 1895.418437,1224.312600 1899.058252,1231.420435"/>
    <poly id="155171983" type="building.yes" color="255,230,230" fill="1" layer="-1.00" shape="1881.094207,1325.885482 1879.174977,1312.664692 1875.002643,1313.262874 1876.912833,1326.483782 1881.094207,1325.885482"/>
    <poly id="155171984" type="building.yes" color="255,230,230" fill="1" layer="-1.00" shape="1897.474304,1321.988075 1896.464946,1315.378329 1892.320042,1315.998332 1893.329403,1322.608077 1897.474304,1321.988075"/>
    <poly id="155172001" type="building.yes" color="255,230,230" fill="1" layer="-1.00" shape="1747.551981,1349.798939 1746.231594,1342.938125 1742.856090,1343.581401 1744.176480,1350.442216 1747.551981,1349.798939"/>
    <poly id="155172002" type="building.yes" color="255,230,230" fill="1" layer="-1.00" shape="1414.248774,1367.394732 1411.800417,1359.406119 1405.672337,1361.272715 1408.111507,1369.250353 1414.248774,1367.394732"/>
    <poly id="155172007" type="building.yes" color="255,230,230" fill="1" layer="-1.00" shape="1686.492606,1331.551008 1699.963712,1328.689792 1697.149487,1315.547321 1683.678216,1318.397449 1686.492606,1331.551008"/>
    <poly id="155172029" type="building.yes" color="255,230,230" fill="1" layer="-1.00" shape="1908.169721,1346.254347 1919.823285,1349.008475 1920.500666,1346.148530 1908.847244,1343.405493 1908.169721,1346.254347"/>
    <poly id="155172038" type="building.yes" color="255,230,230" fill="1" layer="-1.00" shape="1910.219769,1357.720624 1915.130113,1356.824368 1914.623432,1354.057565 1909.713086,1354.953822 1910.219769,1357.720624"/>
    <poly id="155172040" type="building.yes" color="255,230,230" fill="1" layer="-1.00" shape="1851.185640,1328.262614 1849.639264,1320.029124 1846.750945,1320.566141 1848.288277,1328.799750 1851.185640,1328.262614"/>
    <poly id="155172041" type="building.yes" color="255,230,230" fill="1" layer="-1.00" shape="1873.600811,1248.305307 1877.353837,1255.766650 1885.120508,1251.882080 1881.358587,1244.431944 1873.600811,1248.305307"/>
    <poly id="155172049" type="building.yes" color="255,230,230" fill="1" layer="-1.00" shape="1628.931836,1314.477924 1654.132770,1309.133165 1652.262603,1300.371447 1627.052598,1305.716329 1628.931836,1314.477924"/>
    <poly id="155172061" type="building.yes" color="255,230,230" fill="1" layer="-1.00" shape="1806.357413,1365.225703 1818.292213,1362.506811 1817.063856,1357.142435 1805.129048,1359.861329 1806.357413,1365.225703"/>
    <poly id="155172063" type="building.yes" color="255,230,230" fill="1" layer="-1.00" shape="1592.833454,1343.684079 1598.606869,1338.227896 1593.772061,1333.154909 1587.998499,1338.600003 1592.833454,1343.684079"/>
    <poly id="155172080" type="building.yes" color="255,230,230" fill="1" layer="-1.00" shape="1907.248908,1338.112509 1912.521161,1338.598233 1912.776117,1335.954593 1907.494670,1335.457896 1907.248908,1338.112509"/>
    <poly id="155172089" type="building.yes" color="255,230,230" fill="1" layer="-1.00" shape="1815.476124,1354.045884 1811.878049,1328.011645 1800.172934,1329.618165 1803.771043,1355.652400 1815.476124,1354.045884"/>
    <poly id="155172091" type="building.yes" color="255,230,230" fill="1" layer="-1.00" shape="1832.129227,1251.421758 1844.718230,1243.369360 1838.133222,1233.149476 1825.535163,1241.202001 1832.129227,1251.421758"/>
    <poly id="155172107" type="building.yes" color="255,230,230" fill="1" layer="-1.00" shape="1602.018132,1307.886175 1603.339433,1320.327107 1626.443196,1317.894143 1625.121927,1305.453207 1602.018132,1307.886175"/>
    <poly id="155172110" type="building.yes" color="255,230,230" fill="1" layer="-1.00" shape="1600.055493,1381.762893 1605.377560,1377.078101 1598.279133,1357.391071 1593.492711,1361.525249 1600.055493,1381.762893"/>
    <poly id="155172113" type="building.yes" color="255,230,230" fill="1" layer="-1.00" shape="1936.677034,1242.954010 1948.313263,1245.064971 1951.885813,1238.728123 1937.749645,1237.104690 1936.677034,1242.954010"/>
    <poly id="155172120" type="building.yes" color="255,230,230" fill="1" layer="-1.00" shape="1684.586901,1331.121140 1682.423706,1317.947954 1675.941171,1319.009163 1678.104376,1332.182348 1684.586901,1331.121140"/>
    <poly id="155172122" type="building.yes" color="255,230,230" fill="1" layer="-1.00" shape="1821.611878,1352.068537 1830.426089,1350.111603 1829.340258,1345.266766 1820.526042,1347.223700 1821.611878,1352.068537"/>
    <poly id="155172123" type="building.yes" color="255,230,230" fill="1" layer="-1.00" shape="1525.626962,1347.949401 1525.758141,1352.429549 1539.550968,1352.026674 1539.419796,1347.546526 1525.626962,1347.949401"/>
    <poly id="155172135" type="building.yes" color="255,230,230" fill="1" layer="-1.00" shape="1460.083334,1356.886050 1464.323790,1355.277246 1460.595161,1345.563715 1456.354846,1347.183612 1460.083334,1356.886050"/>
    <poly id="155172145" type="building.yes" color="255,230,230" fill="1" layer="-1.00" shape="1904.877826,1327.005432 1912.025892,1325.636155 1911.287877,1321.785195 1904.139808,1323.154472 1904.877826,1327.005432"/>
    <poly id="155172156" type="building.yes" color="255,230,230" fill="1" layer="-1.00" shape="1829.418995,1301.512098 1851.034629,1295.981865 1849.119185,1288.585234 1827.503680,1294.126563 1829.418995,1301.512098"/>
    <poly id="155172158" type="building.yes" color="255,230,230" fill="1" layer="-1.00" shape="1753.609985,1355.011297 1758.386657,1354.272017 1757.893516,1351.161139 1753.125889,1351.900301 1753.609985,1355.011297"/>
    <poly id="155172163" type="building.yes" color="255,230,230" fill="1" layer="-1.00" shape="1852.315255,1358.578064 1856.072449,1358.062958 1855.312494,1352.537137 1851.555152,1353.041150 1852.315255,1358.578064"/>
    <poly id="155172164" type="building.yes" color="255,230,230" fill="1" layer="-1.00" shape="1907.831884,1315.584637 1905.499204,1306.030178 1901.106799,1307.097162 1903.430293,1316.640647 1907.831884,1315.584637"/>
    <poly id="155172174" type="building.yes" color="255,230,230" fill="1" layer="-1.00" shape="1401.961711,1370.152082 1407.218406,1368.762868 1405.372192,1361.842439 1400.115493,1363.231654 1401.961711,1370.152082"/>
    <poly id="155172175" type="building.yes" color="255,230,230" fill="1" layer="-1.00" shape="1675.901521,1369.830055 1671.508255,1362.543589 1669.353699,1363.836514 1673.737921,1371.123098 1675.901521,1369.830055"/>
    <poly id="155172185" type="building.yes" color="255,230,230" fill="1" layer="-1.00" shape="1758.151251,1350.114953 1756.572831,1339.441276 1750.793164,1340.282444 1752.362690,1350.967331 1758.151251,1350.114953"/>
    <poly id="155172186" type="building.yes" color="255,230,230" fill="1" layer="-1.00" shape="1494.470673,1356.589890 1490.411988,1343.097716 1478.136667,1346.753396 1482.195370,1360.245565 1494.470673,1356.589890"/>
    <poly id="155172192" type="building.yes" color="255,230,230" fill="1" layer="-1.00" shape="1802.326245,1283.306963 1813.437304,1281.242289 1811.851507,1272.765258 1800.740438,1274.829934 1802.326245,1283.306963"/>
    <poly id="155172195" type="building.yes" color="255,230,230" fill="1" layer="-1.00" shape="1919.765056,1273.993523 1914.331401,1259.786978 1911.234213,1260.959047 1916.668018,1275.176682 1919.765056,1273.993523"/>
    <poly id="155172201" type="building.yes" color="255,230,230" fill="1" layer="-1.00" shape="1879.624116,1365.664606 1877.217739,1353.936748 1872.056129,1354.991625 1874.453467,1366.719600 1879.624116,1365.664606"/>
    <poly id="155172203" type="building.yes" color="255,230,230" fill="1" layer="-1.00" shape="1862.337241,1327.916996 1859.789526,1317.145051 1855.189210,1318.225873 1857.736784,1328.986725 1862.337241,1327.916996"/>
    <poly id="155172206" type="building.yes" color="255,230,230" fill="1" layer="-1.00" shape="1910.487641,1244.694330 1906.035748,1234.990091 1900.315112,1237.583194 1904.767156,1247.298522 1910.487641,1244.694330"/>
    <poly id="155172207" type="building.yes" color="255,230,230" fill="1" layer="-1.00" shape="1856.652279,1353.972881 1865.305692,1352.173399 1864.331049,1347.526790 1855.677487,1349.315181 1856.652279,1353.972881"/>
    <poly id="155172210" type="building.yes" color="255,230,230" fill="1" layer="-1.00" shape="1625.870735,1343.239731 1620.062401,1349.484008 1628.481617,1357.427660 1634.535534,1357.492502 1637.192933,1355.216727 1633.922890,1350.101016 1627.406149,1343.031005 1625.870735,1343.239731"/>
    <poly id="155172217" type="building.yes" color="255,230,230" fill="1" layer="-1.00" shape="1730.155787,1350.026822 1733.883951,1349.367827 1733.122682,1345.128902 1729.394515,1345.787898 1730.155787,1350.026822"/>
    <poly id="155172222" type="building.yes" color="255,230,230" fill="1" layer="-1.00" shape="1916.571649,1239.445084 1928.810769,1247.527646 1936.486579,1236.000741 1924.256498,1227.918050 1916.571649,1239.445084"/>
    <poly id="155172235" type="building.yes" color="255,230,230" fill="1" layer="-1.00" shape="1754.141548,1300.955707 1763.443434,1298.925759 1761.558187,1290.386094 1752.256437,1292.427136 1754.141548,1300.955707"/>
    <poly id="155172237" type="building.yes" color="255,230,230" fill="1" layer="-1.00" shape="1868.171934,1337.503277 1881.387167,1334.446000 1880.237021,1329.524343 1867.021636,1332.570530 1868.171934,1337.503277"/>
    <poly id="155172238" type="building.yes" color="255,230,230" fill="1" layer="-1.00" shape="1824.789277,1332.834806 1831.524533,1331.726023 1830.266563,1324.098914 1823.522255,1325.207817 1824.789277,1332.834806"/>
    <poly id="155172239" type="building.yes" color="255,230,230" fill="1" layer="-1.00" shape="1863.722295,1251.219085 1868.039256,1248.533387 1863.862873,1241.909616 1859.554957,1244.595197 1863.722295,1251.219085"/>
    <poly id="155172246" type="building.yes" color="255,230,230" fill="1" layer="-1.00" shape="1821.671327,1274.356239 1837.192795,1266.376381 1831.744020,1255.864288 1816.213492,1263.844274 1821.671327,1274.356239"/>
    <poly id="155172254" type="building.yes" color="255,230,230" fill="1" layer="-1.00" shape="1707.457816,1367.541672 1715.004337,1365.512483 1713.873175,1361.356062 1706.326796,1363.396344 1707.457816,1367.541672"/>
    <poly id="155172259" type="building.yes" color="255,230,230" fill="1" layer="-1.00" shape="1701.303362,1319.065070 1741.875938,1310.889937 1740.299520,1303.133886 1699.727055,1311.320116 1701.303362,1319.065070"/>
    <poly id="155172260" type="building.yes" color="255,230,230" fill="1" layer="-1.00" shape="1834.249851,1360.212309 1841.151987,1359.411973 1840.419498,1353.220169 1833.517502,1354.031598 1834.249851,1360.212309"/>
    <poly id="155172264" type="building.yes" color="255,230,230" fill="1" layer="-1.00" shape="1604.983490,1358.068611 1608.340458,1360.842394 1610.531829,1358.217723 1607.165814,1355.444058 1604.983490,1358.068611"/>
    <poly id="155172265" type="building.yes" color="255,230,230" fill="1" layer="-1.00" shape="1440.879260,1360.000424 1438.171639,1352.248178 1432.182014,1354.323718 1434.889639,1362.075962 1440.879260,1360.000424"/>
    <poly id="155172269" type="building.yes" color="255,230,230" fill="1" layer="-1.00" shape="1911.029167,1319.991396 1918.481481,1318.362990 1917.711925,1314.867441 1910.268655,1316.495729 1911.029167,1319.991396"/>
    <poly id="155172273" type="building.yes" color="255,230,230" fill="1" layer="-1.00" shape="1908.016226,1358.037884 1906.829477,1353.083421 1904.294845,1353.682356 1905.481596,1358.636818 1908.016226,1358.037884"/>
    <poly id="155172278" type="building.yes" color="255,230,230" fill="1" layer="-1.00" shape="1679.725001,1368.160258 1677.699013,1359.933077 1672.088709,1361.959107 1676.315797,1368.992596 1679.725001,1368.160258"/>
    <poly id="155172279" type="building.yes" color="255,230,230" fill="1" layer="-1.00" shape="1662.210279,1319.998979 1663.002875,1325.934829 1674.148554,1324.446397 1673.355964,1318.510547 1662.210279,1319.998979"/>
    <poly id="155172280" type="building.yes" color="255,230,230" fill="1" layer="-1.00" shape="1846.027348,1342.707584 1853.425598,1341.789827 1852.222502,1332.131847 1844.824244,1333.049605 1846.027348,1342.707584"/>
    <poly id="155172282" type="building.yes" color="255,230,230" fill="1" layer="-1.00" shape="1523.322113,1340.546845 1521.395671,1330.953858 1516.630814,1331.903892 1518.548214,1341.496997 1523.322113,1340.546845"/>
    <poly id="155172296" type="building.yes" color="255,230,230" fill="1" layer="-1.00" shape="1912.173412,1343.140112 1920.931276,1343.791030 1921.185416,1340.393029 1912.427548,1339.742110 1912.173412,1343.140112"/>
    <poly id="155172300" type="building.yes" color="255,230,230" fill="1" layer="-1.00" shape="1863.197340,1292.694275 1859.739651,1280.835960 1851.185488,1283.310863 1854.634141,1295.169294 1863.197340,1292.694275"/>
    <poly id="155172305" type="building.yes" color="255,230,230" fill="1" layer="-1.00" shape="1615.298308,1328.412921 1625.305439,1327.039202 1624.315600,1319.863443 1614.308461,1321.237163 1615.298308,1328.412921"/>
    <poly id="155172307" type="building.yes" color="255,230,230" fill="1" layer="-1.00" shape="1858.823566,1360.179138 1866.596815,1358.879299 1865.821628,1354.263361 1858.048520,1355.574293 1858.823566,1360.179138"/>
    <poly id="155172310" type="building.yes" color="255,230,230" fill="1" layer="-1.00" shape="1896.246866,1314.615715 1895.354625,1308.658967 1891.309084,1309.266577 1892.201183,1315.212233 1896.246866,1314.615715"/>
    <poly id="155172315" type="building.yes" color="255,230,230" fill="1" layer="-1.00" shape="1743.148427,1350.011933 1741.737099,1343.806840 1738.354147,1344.572247 1739.765478,1350.777339 1743.148427,1350.011933"/>
    <poly id="155172329" type="building.yes" color="255,230,230" fill="1" layer="-1.00" shape="1868.984613,1344.293094 1883.081544,1341.545999 1882.034007,1336.168157 1867.928021,1338.915371 1868.984613,1344.293094"/>
    <poly id="155172331" type="building.yes" color="255,230,230" fill="1" layer="-1.00" shape="1847.429891,1330.963165 1845.767645,1320.789790 1841.767924,1321.441198 1843.439221,1331.614454 1847.429891,1330.963165"/>
    <poly id="155172332" type="building.yes" color="255,230,230" fill="1" layer="-1.00" shape="1873.680831,1241.281936 1875.758763,1245.193019 1883.235375,1241.267868 1881.148254,1237.345810 1873.680831,1241.281936"/>
    <poly id="155172333" type="building.yes" color="255,230,230" fill="1" layer="-1.00" shape="1900.324680,1254.223643 1901.311499,1259.801968 1926.443781,1255.412952 1925.456977,1249.834625 1900.324680,1254.223643"/>
    <poly id="155172336" type="landuse.construction" color="194,194,130" fill="1" layer="-3.00" shape="1921.204961,1313.523790 1919.029182,1303.512434 1911.945728,1304.980702 1913.620625,1314.743453 1921.204961,1313.523790"/>
    <poly id="155172340" type="building.yes" color="255,230,230" fill="1" layer="-1.00" shape="1721.512383,1358.804260 1725.558910,1358.274215 1724.082178,1347.077804 1720.035646,1347.607849 1721.512383,1358.804260"/>
    <poly id="155172345" type="building.yes" color="255,230,230" fill="1" layer="-1.00" shape="1728.219022,1322.362253 1740.100599,1319.721611 1738.889992,1314.334825 1727.008407,1316.975469 1728.219022,1322.362253"/>
    <poly id="155172348" type="building.yes" color="255,230,230" fill="1" layer="-1.00" shape="1594.353904,1356.821304 1604.644732,1346.036354 1599.120223,1340.806003 1588.829540,1351.602052 1594.353904,1356.821304"/>
    <poly id="155172353" type="building.yes" color="255,230,230" fill="1" layer="-1.00" shape="1910.155909,1278.822941 1907.393594,1268.242386 1902.289691,1269.562737 1905.052013,1280.143291 1910.155909,1278.822941"/>
    <poly id="155172357" type="building.yes" color="255,230,230" fill="1" layer="-1.00" shape="1788.126930,1372.908284 1802.653041,1370.466064 1796.113441,1331.923341 1781.587413,1334.376662 1788.126930,1372.908284"/>
    <poly id="155172359" type="building.yes" color="255,230,230" fill="1" layer="-1.00" shape="1830.169716,1250.338033 1823.207021,1240.988414 1820.169008,1243.224737 1827.140751,1252.574236 1830.169716,1250.338033"/>
    <poly id="155172361" type="building.yes" color="255,230,230" fill="1" layer="-1.00" shape="1894.611868,1361.851970 1897.271985,1361.162641 1894.384381,1349.995760 1891.715214,1350.685208 1894.611868,1361.851970"/>
    <poly id="155172364" type="building.yes" color="255,230,230" fill="1" layer="-1.00" shape="1901.913157,1235.243703 1909.777918,1231.246936 1908.078885,1227.941044 1900.214266,1231.948905 1901.913157,1235.243703"/>
    <poly id="155172365" type="building.yes" color="255,230,230" fill="1" layer="-1.00" shape="1876.699928,1326.808285 1874.262772,1312.728962 1866.769776,1314.014033 1869.206943,1328.093354 1876.699928,1326.808285"/>
    <poly id="155172366" type="building.yes" color="255,230,230" fill="1" layer="-1.00" shape="1802.300982,1306.948016 1799.873757,1297.783098 1796.113738,1298.775293 1798.540967,1307.940210 1802.300982,1306.948016"/>
    <poly id="155172372" type="building.yes" color="255,230,230" fill="1" layer="-1.00" shape="1677.550992,1334.142097 1676.245768,1326.371406 1672.327477,1327.021824 1673.623658,1334.792632 1677.550992,1334.142097"/>
    <poly id="155172374" type="building.yes" color="255,230,230" fill="1" layer="-1.00" shape="1920.432489,1321.565744 1918.835751,1326.079584 1927.852575,1329.234302 1929.449462,1324.731556 1920.432489,1321.565744"/>
    <poly id="155172375" type="building.yes" color="255,230,230" fill="1" layer="-1.00" shape="1688.480222,1316.137959 1686.795021,1309.060058 1681.428097,1310.328517 1683.113302,1317.406417 1688.480222,1316.137959"/>
    <poly id="155172376" type="building.yes" color="255,230,230" fill="1" layer="-1.00" shape="1832.459502,1352.004202 1839.923391,1351.263074 1839.340433,1345.435406 1831.876540,1346.176534 1832.459502,1352.004202"/>
    <poly id="155172379" type="building.yes" color="255,230,230" fill="1" layer="-1.00" shape="1528.824862,1338.599789 1529.234186,1346.348939 1540.871070,1345.752485 1540.461611,1337.992243 1528.824862,1338.599789"/>
    <poly id="155172385" type="building.yes" color="255,230,230" fill="1" layer="-1.00" shape="1469.281423,1352.471998 1466.002788,1342.575057 1461.254998,1344.135052 1464.533638,1354.031992 1469.281423,1352.471998"/>
    <poly id="155172406" type="building.yes" color="255,230,230" fill="1" layer="-1.00" shape="1919.860022,1335.906314 1925.098504,1337.268891 1925.891025,1334.218847 1920.652686,1332.867362 1919.860022,1335.906314"/>
    <poly id="155172413" type="building.yes" color="255,230,230" fill="1" layer="-1.00" shape="1915.018623,1353.142712 1918.402205,1353.808454 1919.251425,1349.559547 1915.867696,1348.882712 1915.018623,1353.142712"/>
    <poly id="155172416" type="building.yes" color="255,230,230" fill="1" layer="-1.00" shape="1849.659372,1273.168988 1855.393419,1270.220676 1852.404399,1264.446683 1846.670349,1267.394996 1849.659372,1273.168988"/>
    <poly id="155172417" type="building.yes" color="255,230,230" fill="1" layer="-1.00" shape="1629.318209,1321.173471 1634.138669,1320.322613 1633.239939,1315.264562 1628.410575,1316.126631 1629.318209,1321.173471"/>
    <poly id="155172422" type="building.yes" color="255,230,230" fill="1" layer="-1.00" shape="1851.091963,1358.438761 1850.290883,1352.536291 1847.283230,1352.941745 1848.084311,1358.844215 1851.091963,1358.438761"/>
    <poly id="155172428" type="building.yes" color="255,230,230" fill="1" layer="-1.00" shape="1748.421741,1349.887390 1751.454788,1349.348445 1750.020220,1341.368659 1746.987171,1341.907605 1748.421741,1349.887390"/>