<?xml version="1.0" encoding="UTF-8"?>

<!-- generated on 06/18/20 17:59:53 by Eclipse SUMO duarouter Version 1.6.0
<configuration xmlns:xsi="http://www.w3.org/2001/XMLSchema-instance" xsi:noNamespaceSchemaLocation="http://sumo.dlr.de/xsd/duarouterConfiguration.xsd">

    <input>
        <net-file value="L:\Progam_Files_x86\Eclipse\Sumo\tools\2020-06-18-17-59-31\osm.net.xml"/>
        <route-files value="L:\Progam_Files_x86\Eclipse\Sumo\tools\2020-06-18-17-59-31\osm.passenger.trips.xml"/>
    </input>

    <output>
        <output-file value="L:\Progam_Files_x86\Eclipse\Sumo\tools\2020-06-18-17-59-31\osm.passenger.trips.xml.tmp"/>
        <write-trips value="true"/>
    </output>

    <time>
        <begin value="0"/>
        <end value="3600.0"/>
    </time>

    <report>
        <no-warnings value="true"/>
        <ignore-errors value="true"/>
        <no-step-log value="true"/>
    </report>

</configuration>
-->

<routes xmlns:xsi="http://www.w3.org/2001/XMLSchema-instance" xsi:noNamespaceSchemaLocation="http://sumo.dlr.de/xsd/routes_file.xsd">
    <vType id="veh_passenger" vClass="passenger"/>
    <trip id="veh0" type="veh_passenger" depart="0.00" departLane="best" from="688819562#1" to="-193327849"/>
    <trip id="veh1" type="veh_passenger" depart="4.71" departLane="best" from="-94392461#1" to="-94136491#2"/>
    <trip id="veh2" type="veh_passenger" depart="9.41" departLane="best" from="94515983" to="-672437156#11"/>
    <trip id="veh3" type="veh_passenger" depart="14.12" departLane="best" from="198609869" to="-209301328"/>
    <trip id="veh4" type="veh_passenger" depart="18.82" departLane="best" from="-94131617#3" to="39436483#0"/>
    <trip id="veh5" type="veh_passenger" depart="23.53" departLane="best" from="-193327859#0" to="-94131614#1"/>
    <trip id="veh6" type="veh_passenger" depart="28.24" departLane="best" from="690099785#7" to="415221604#10"/>
    <trip id="veh7" type="veh_passenger" depart="32.94" departLane="best" from="-94131619#1" to="648471464#4"/>
    <trip id="veh8" type="veh_passenger" depart="37.65" departLane="best" from="94392420" to="-103273020#0"/>
    <trip id="veh9" type="veh_passenger" depart="42.36" departLane="best" from="94392396" to="69518092#2"/>
    <trip id="veh10" type="veh_passenger" depart="47.06" departLane="best" from="-94519331#1" to="-69518096#9"/>
    <trip id="veh11" type="veh_passenger" depart="51.77" departLane="best" from="98180561#0" to="-94518685#3"/>
    <trip id="veh12" type="veh_passenger" depart="56.47" departLane="best" from="94515917#0" to="672437156#13"/>
    <trip id="veh14" type="veh_passenger" depart="65.89" departLane="best" from="-98726948#4" to="415221604#5"/>
    <trip id="veh15" type="veh_passenger" depart="70.59" departLane="best" from="94072615#0" to="-32635198#3"/>
    <trip id="veh16" type="veh_passenger" depart="75.30" departLane="best" from="-94177762#2" to="-94515914#1"/>
    <trip id="veh17" type="veh_passenger" depart="80.00" departLane="best" from="-628464397" to="-94392314#0"/>
    <trip id="veh18" type="veh_passenger" depart="84.71" departLane="best" from="-672437156#18" to="-94392470#1"/>
    <trip id="veh19" type="veh_passenger" depart="89.42" departLane="best" from="688819561#2" to="-98726948#16"/>
    <trip id="veh20" type="veh_passenger" depart="94.12" departLane="best" from="-98726948#23" to="-94131616#5"/>
    <trip id="veh21" type="veh_passenger" depart="98.83" departLane="best" from="-94392435#4" to="94524344#0"/>
    <trip id="veh22" type="veh_passenger" depart="103.54" departLane="best" from="690099785#6" to="672437156#15"/>
    <trip id="veh23" type="veh_passenger" depart="108.24" departLane="best" from="-94072644#4" to="94072643#0"/>
    <trip id="veh24" type="veh_passenger" depart="112.95" departLane="best" from="-94072615#1" to="-98726948#5"/>
    <trip id="veh25" type="veh_passenger" depart="117.65" departLane="best" from="98726948#29" to="688819561#3"/>
    <trip id="veh26" type="veh_passenger" depart="122.36" departLane="best" from="94515916#0" to="94131616#5"/>
    <trip id="veh27" type="veh_passenger" depart="127.07" departLane="best" from="-94392303#0" to="-209301329#3"/>
    <trip id="veh28" type="veh_passenger" depart="131.77" departLane="best" from="-94515973#2" to="-94392440"/>
    <trip id="veh29" type="veh_passenger" depart="136.48" departLane="best" from="-94131616#6" to="94524344#3"/>
    <trip id="veh30" type="veh_passenger" depart="141.18" departLane="best" departSpeed="max" from="691691444#0" to="103270924"/>
    <trip id="veh31" type="veh_passenger" depart="145.89" departLane="best" from="94519173" to="389635746#2"/>
    <trip id="veh32" type="veh_passenger" depart="150.60" departLane="best" from="-94392435#1" to="-94392362#4"/>
    <trip id="veh33" type="veh_passenger" depart="155.30" departLane="best" from="580820975" to="-94392435#0"/>
    <trip id="veh34" type="veh_passenger" depart="160.01" departLane="best" from="648471464#2" to="94515973#0"/>
    <trip id="veh35" type="veh_passenger" depart="164.71" departLane="best" from="103273020#0" to="-94131617#4"/>
    <trip id="veh36" type="veh_passenger" depart="169.42" departLane="best" from="-672437156#14" to="-32635206"/>
    <trip id="veh37" type="veh_passenger" depart="174.13" departLane="best" from="94392362#2" to="198609869"/>
    <trip id="veh38" type="veh_passenger" depart="178.83" departLane="best" from="-39655532#1" to="-98726975"/>
    <trip id="veh39" type="veh_passenger" depart="183.54" departLane="best" from="98726948#5" to="415221603#0"/>
    <trip id="veh40" type="veh_passenger" depart="188.25" departLane="best" departSpeed="max" from="98631270#0" to="94515914#3"/>
    <trip id="veh41" type="veh_passenger" depart="192.95" departLane="best" from="-153988081#0" to="759389175"/>
    <trip id="veh42" type="veh_passenger" depart="197.66" departLane="best" from="69518092#4" to="415221603#8"/>
    <trip id="veh43" type="veh_passenger" depart="202.36" departLane="best" from="-94392435#4" to="688819561#3"/>
    <trip id="veh44" type="veh_passenger" depart="207.07" departLane="best" from="-672437156#9" to="214274760#0"/>
    <trip id="veh45" type="veh_passenger" depart="211.78" departLane="best" departSpeed="max" from="389635746#0" to="98180514"/>
    <trip id="veh46" type="veh_passenger" depart="216.48" departLane="best" from="94515945#3" to="-94392435#0"/>
    <trip id="veh47" type="veh_passenger" depart="221.19" departLane="best" from="39522594#0" to="-94086883"/>
    <trip id="veh48" type="veh_passenger" depart="225.89" departLane="best" from="94518685#0" to="94515921#1"/>
    <trip id="veh49" type="veh_passenger" depart="230.60" departLane="best" from="-94515925" to="688819561#3"/>
    <trip id="veh50" type="veh_passenger" depart="235.31" departLane="best" from="672437156#15" to="-69518096#7"/>
    <trip id="veh51" type="veh_passenger" depart="240.01" departLane="best" from="94392303#4" to="415221603#10"/>
    <trip id="veh52" type="veh_passenger" depart="244.72" departLane="best" from="-103269595#1" to="-94515987#4"/>
    <trip id="veh53" type="veh_passenger" depart="249.43" departLane="best" from="-193327835#1" to="94519175"/>
    <trip id="veh54" type="veh_passenger" depart="254.13" departLane="best" from="94515954#0" to="94392435#0"/>
    <trip id="veh55" type="veh_passenger" depart="258.84" departLane="best" from="-94515954#0" to="-39436494#1"/>
    <trip id="veh56" type="veh_passenger" depart="263.54" departLane="best" from="94515945#4" to="94524344#4"/>
    <trip id="veh57" type="veh_passenger" depart="268.25" departLane="best" from="-672437156#10" to="39436461#0"/>
    <trip id="veh58" type="veh_passenger" depart="272.96" departLane="best" from="-442148675#1" to="94131613#1"/>
    <trip id="veh59" type="veh_passenger" depart="277.66" departLane="best" departSpeed="max" from="39436473#0" to="415221604#3"/>
    <trip id="veh60" type="veh_passenger" depart="282.37" departLane="best" from="-94392435#2" to="94515924#0"/>
    <trip id="veh61" type="veh_passenger" depart="287.07" departLane="best" from="198609870#1" to="-94131616#7"/>
    <trip id="veh62" type="veh_passenger" depart="291.78" departLane="best" from="415221604#5" to="94072643#3"/>
    <trip id="veh63" type="veh_passenger" depart="296.49" departLane="best" from="-94131615#2" to="-94515961"/>
    <trip id="veh64" type="veh_passenger" depart="301.19" departLane="best" from="98726948#5" to="688819562#0"/>
    <trip id="veh66" type="veh_passenger" depart="310.61" departLane="best" from="-690099785#1" to="-94136491#5"/>
    <trip id="veh67" type="veh_passenger" depart="315.31" departLane="best" from="-94519175" to="648471464#4"/>
    <trip id="veh68" type="veh_passenger" depart="320.02" departLane="best" from="-94392303#2" to="-94131617#4"/>
    <trip id="veh69" type="veh_passenger" depart="324.72" departLane="best" from="-442148675#3" to="682818879#1"/>
    <trip id="veh70" type="veh_passenger" depart="329.43" departLane="best" from="-94392303#0" to="94515987#0"/>
    <trip id="veh71" type="veh_passenger" depart="334.14" departLane="best" from="94515924#0" to="-442148675#3"/>
    <trip id="veh72" type="veh_passenger" depart="338.84" departLane="best" from="-94392321" to="691691443#0"/>
    <trip id="veh73" type="veh_passenger" depart="343.55" departLane="best" from="94524344#5" to="52225786#2"/>
    <trip id="veh74" type="veh_passenger" depart="348.25" departLane="best" departSpeed="max" from="39436457#0" to="94131617#2"/>
    <trip id="veh75" type="veh_passenger" depart="352.96" departLane="best" from="94392418#0" to="-94131612#1"/>
    <trip id="veh76" type="veh_passenger" depart="357.67" departLane="best" from="-672437156#16" to="209301329#6"/>
    <trip id="veh77" type="veh_passenger" depart="362.37" departLane="best" from="198609870#1" to="389635746#2"/>
    <trip id="veh78" type="veh_passenger" depart="367.08" departLane="best" from="94131609#2" to="691691443#0"/>
    <trip id="veh79" type="veh_passenger" depart="371.79" departLane="best" from="98726948#20" to="-672437156#16"/>
    <trip id="veh80" type="veh_passenger" depart="376.49" departLane="best" from="153988081#0" to="-94519175"/>
    <trip id="veh81" type="veh_passenger" depart="381.20" departLane="best" from="94515924#1" to="-94392362#6"/>
    <trip id="veh82" type="veh_passenger" depart="385.90" departLane="best" from="-94131612#1" to="32635198#3"/>
    <trip id="veh83" type="veh_passenger" depart="390.61" departLane="best" from="198609869" to="-94392470#1"/>
    <trip id="veh84" type="veh_passenger" depart="395.32" departLane="best" from="-94392369" to="94516001#1"/>
    <trip id="veh85" type="veh_passenger" depart="400.02" departLane="best" from="214274761#5" to="94515914#3"/>
    <trip id="veh86" type="veh_passenger" depart="404.73" departLane="best" from="44360745#2" to="-39436479#1"/>
    <trip id="veh87" type="veh_passenger" depart="409.43" departLane="best" from="98726975" to="94392435#3"/>
    <trip id="veh88" type="veh_passenger" depart="414.14" departLane="best" departSpeed="max" from="98631270#0" to="94518685#3"/>
    <trip id="veh89" type="veh_passenger" depart="418.85" departLane="best" from="94515917#2" to="-94072641#1"/>
    <trip id="veh90" type="veh_passenger" depart="423.55" departLane="best" from="39436483#0" to="-94131616#9"/>
    <trip id="veh91" type="veh_passenger" depart="428.26" departLane="best" from="-98726948#4" to="98726948#23"/>
    <trip id="veh92" type="veh_passenger" depart="432.97" departLane="best" from="-94392435#2" to="94131617#2"/>
    <trip id="veh93" type="veh_passenger" depart="437.67" departLane="best" departSpeed="max" from="389635746#0" to="198609870#1"/>
    <trip id="veh94" type="veh_passenger" depart="442.38" departLane="best" from="98180561#0" to="98726948#5"/>
    <trip id="veh95" type="veh_passenger" depart="447.08" departLane="best" from="52225786#0" to="709823201#3"/>
    <trip id="veh96" type="veh_passenger" depart="451.79" departLane="best" departSpeed="max" from="98631270#0" to="628464398"/>
    <trip id="veh97" type="veh_passenger" depart="456.50" departLane="best" from="-39436493#1" to="648471464#2"/>
    <trip id="veh98" type="veh_passenger" depart="461.20" departLane="best" from="39655483#0" to="94392491"/>
    <trip id="veh99" type="veh_passenger" depart="465.91" departLane="best" from="648471464#6" to="691691443#0"/>
    <trip id="veh100" type="veh_passenger" depart="470.61" departLane="best" from="-94392314#3" to="-690099785#0"/>
    <trip id="veh101" type="veh_passenger" depart="475.32" departLane="best" from="94515980" to="-94392362#4"/>
    <trip id="veh102" type="veh_passenger" depart="480.03" departLane="best" from="648471464#6" to="672437156#4"/>
    <trip id="veh103" type="veh_passenger" depart="484.73" departLane="best" from="193327859#0" to="648471464#2"/>
    <trip id="veh104" type="veh_passenger" depart="489.44" departLane="best" from="415221603#8" to="94524344#0"/>
    <trip id="veh105" type="veh_passenger" depart="494.14" departLane="best" from="-94131616#0" to="69518096#8"/>
    <trip id="veh106" type="veh_passenger" depart="498.85" departLane="best" from="-94392331#1" to="103273019#0"/>
    <trip id="veh107" type="veh_passenger" depart="503.56" departLane="best" from="69513494#9" to="-94515926"/>
    <trip id="veh108" type="veh_passenger" depart="508.26" departLane="best" from="-94515973#2" to="94131611#0"/>
    <trip id="veh109" type="veh_passenger" depart="512.97" departLane="best" from="-51772729#1" to="389635746#2"/>
    <trip id="veh110" type="veh_passenger" depart="517.68" departLane="best" from="-51772729#2" to="-94131616#9"/>
    <trip id="veh111" type="veh_passenger" depart="522.38" departLane="best" from="-94392435#2" to="94520079"/>
    <trip id="veh112" type="veh_passenger" depart="527.09" departLane="best" from="94392499#0" to="69518096#1"/>
    <trip id="veh113" type="veh_passenger" depart="531.79" departLane="best" from="672437156#16" to="98726948#27"/>
    <trip id="veh114" type="veh_passenger" depart="536.50" departLane="best" departSpeed="max" from="691691444#0" to="-103273020#1"/>
    <trip id="veh115" type="veh_passenger" depart="541.21" departLane="best" from="94392440" to="-94515925"/>
    <trip id="veh116" type="veh_passenger" depart="545.91" departLane="best" from="692236963" to="94524344#1"/>
    <trip id="veh117" type="veh_passenger" depart="550.62" departLane="best" from="-69518077" to="-682818879#0"/>
    <trip id="veh118" type="veh_passenger" depart="555.32" departLane="best" from="-672437156#6" to="415221604#6"/>
    <trip id="veh119" type="veh_passenger" depart="560.03" departLane="best" from="-94392452#5" to="672437156#13"/>
    <trip id="veh120" type="veh_passenger" depart="564.74" departLane="best" from="94072644#2" to="-94131616#0"/>
    <trip id="veh121" type="veh_passenger" depart="569.44" departLane="best" from="688819561#2" to="-94392435#1"/>
    <trip id="veh122" type="veh_passenger" depart="574.15" departLane="best" from="39436493#0" to="94515987#0"/>
    <trip id="veh123" type="veh_passenger" depart="578.86" departLane="best" from="94515916#5" to="-672437156#14"/>
    <trip id="veh124" type="veh_passenger" depart="583.56" departLane="best" from="198609870#1" to="-94392470#0"/>
    <trip id="veh125" type="veh_passenger" depart="588.27" departLane="best" from="-103270924" to="94131616#0"/>
    <trip id="veh126" type="veh_passenger" depart="592.97" departLane="best" from="688819562#0" to="-94392427#1"/>
    <trip id="veh127" type="veh_passenger" depart="597.68" departLane="best" from="94131613#0" to="415221604#5"/>
    <trip id="veh128" type="veh_passenger" depart="602.39" departLane="best" from="209301329#1" to="-103275155"/>
    <trip id="veh129" type="veh_passenger" depart="607.09" departLane="best" from="-576937120" to="94515928#2"/>
    <trip id="veh130" type="veh_passenger" depart="611.80" departLane="best" from="94515995#3" to="415221604#2"/>
    <trip id="veh131" type="veh_passenger" depart="616.50" departLane="best" from="-69518096#3" to="-690099785#9"/>
    <trip id="veh132" type="veh_passenger" depart="621.21" departLane="best" from="94392362#5" to="94515914#3"/>
    <trip id="veh133" type="veh_passenger" depart="625.92" departLane="best" from="94515988#0" to="-94131616#6"/>
    <trip id="veh134" type="veh_passenger" depart="630.62" departLane="best" from="-94392362#6" to="-672437156#3"/>
    <trip id="veh135" type="veh_passenger" depart="635.33" departLane="best" from="94392314#0" to="94515928#3"/>
    <trip id="veh136" type="veh_passenger" depart="640.04" departLane="best" from="182979321" to="672437156#4"/>
    <trip id="veh137" type="veh_passenger" depart="644.74" departLane="best" from="-69518096#8" to="94519331#0"/>
    <trip id="veh138" type="veh_passenger" depart="649.45" departLane="best" from="94515925" to="98726948#11"/>
    <trip id="veh139" type="veh_passenger" depart="654.15" departLane="best" from="94392427#0" to="94515928#1"/>
    <trip id="veh140" type="veh_passenger" depart="658.86" departLane="best" from="-193327849" to="94072644#2"/>
    <trip id="veh141" type="veh_passenger" depart="663.57" departLane="best" from="-94516001#0" to="94519331#0"/>
    <trip id="veh142" type="veh_passenger" depart="668.27" departLane="best" from="94392383#0" to="94515916#4"/>
    <trip id="veh143" type="veh_passenger" depart="672.98" departLane="best" from="94392331#0" to="-672437156#6"/>
    <trip id="veh144" type="veh_passenger" depart="677.68" departLane="best" from="-94136491#1" to="94392362#6"/>
    <trip id="veh145" type="veh_passenger" depart="682.39" departLane="best" departSpeed="max" from="389635746#0" to="-94515928#3"/>
    <trip id="veh146" type="veh_passenger" depart="687.10" departLane="best" from="94392362#5" to="-94177762#2"/>
    <trip id="veh147" type="veh_passenger" depart="691.80" departLane="best" from="-193327835#4" to="-94131613#0"/>
    <trip id="veh148" type="veh_passenger" depart="696.51" departLane="best" from="98631266#3" to="-94392470#1"/>
    <trip id="veh149" type="veh_passenger" depart="701.22" departLane="best" from="688819562#1" to="103273020#1"/>
    <trip id="veh150" type="veh_passenger" depart="705.92" departLane="best" from="98726948#17" to="415221603#8"/>
    <trip id="veh151" type="veh_passenger" depart="710.63" departLane="best" departSpeed="max" from="98170703" to="-682818879#0"/>
    <trip id="veh152" type="veh_passenger" depart="715.33" departLane="best" departSpeed="max" from="98631270#0" to="-94086883"/>
    <trip id="veh153" type="veh_passenger" depart="720.04" departLane="best" from="98631211#1" to="-94392435#2"/>
    <trip id="veh154" type="veh_passenger" depart="724.75" departLane="best" from="-672437156#6" to="214274760#0"/>
    <trip id="veh155" type="veh_passenger" depart="729.45" departLane="best" from="94131609#0" to="-94515962#1"/>
    <trip id="veh156" type="veh_passenger" depart="734.16" departLane="best" from="672437156#14" to="39436559#2"/>
    <trip id="veh157" type="veh_passenger" depart="738.86" departLane="best" from="100394781#4" to="624198279#0"/>
    <trip id="veh158" type="veh_passenger" depart="743.57" departLane="best" from="-94392383#0" to="69518096#15"/>
    <trip id="veh159" type="veh_passenger" depart="748.28" departLane="best" from="415221604#5" to="709823201#3"/>
    <trip id="veh160" type="veh_passenger" depart="752.98" departLane="best" from="94131613#1" to="691691443#0"/>
    <trip id="veh161" type="veh_passenger" depart="757.69" departLane="best" from="-98726948#16" to="-442148675#1"/>
    <trip id="veh162" type="veh_passenger" depart="762.40" departLane="best" from="692236963" to="-94515999#4"/>
    <trip id="veh163" type="veh_passenger" depart="767.10" departLane="best" from="-94515973#1" to="94392470#2"/>
    <trip id="veh164" type="veh_passenger" depart="771.81" departLane="best" from="94072649#0" to="-94515926"/>
    <trip id="veh165" type="veh_passenger" depart="776.51" departLane="best" from="-94515954#1" to="182979431"/>
    <trip id="veh166" type="veh_passenger" depart="781.22" departLane="best" from="153988081#0" to="-94515921#0"/>
    <trip id="veh167" type="veh_passenger" depart="785.93" departLane="best" from="-690099785#9" to="193327859#1"/>
    <trip id="veh168" type="veh_passenger" depart="790.63" departLane="best" departSpeed="max" from="98170703" to="692236963"/>
    <trip id="veh169" type="veh_passenger" depart="795.34" departLane="best" from="94515995#3" to="672437156#17"/>
    <trip id="veh170" type="veh_passenger" depart="800.04" departLane="best" from="-103269595#1" to="-94392502"/>
    <trip id="veh171" type="veh_passenger" depart="804.75" departLane="best" departSpeed="max" from="691691444#0" to="389635746#2"/>
    <trip id="veh172" type="veh_passenger" depart="809.46" departLane="best" from="214274761#5" to="-94131616#9"/>
    <trip id="veh173" type="veh_passenger" depart="814.16" departLane="best" departSpeed="max" from="39436457#0" to="94515973#3"/>
    <trip id="veh175" type="veh_passenger" depart="823.57" departLane="best" from="688819561#0" to="-94518685#2"/>
    <trip id="veh176" type="veh_passenger" depart="828.28" departLane="best" from="94392452#0" to="94131610#1"/>
    <trip id="veh177" type="veh_passenger" depart="832.99" departLane="best" from="-94131614#1" to="-193327849"/>
    <trip id="veh178" type="veh_passenger" depart="837.69" departLane="best" from="-94392362#3" to="39436459#0"/>
    <trip id="veh179" type="veh_passenger" depart="842.40" departLane="best" departSpeed="max" from="94515919" to="-51772729#1"/>
    <trip id="veh180" type="veh_passenger" depart="847.11" departLane="best" departSpeed="max" from="39436559#0" to="-94392362#2"/>
    <trip id="veh181" type="veh_passenger" depart="851.81" departLane="best" departSpeed="max" from="691691444#0" to="-103273019#1"/>
    <trip id="veh182" type="veh_passenger" depart="856.52" departLane="best" from="-672437156#6" to="209301328"/>
    <trip id="veh183" type="veh_passenger" depart="861.22" departLane="best" from="-94072649#5" to="98180542"/>
    <trip id="veh184" type="veh_passenger" depart="865.93" departLane="best" from="415221603#10" to="-39436479#1"/>
    <trip id="veh185" type="veh_passenger" depart="870.64" departLane="best" from="-94392362#6" to="94392470#2"/>
    <trip id="veh186" type="veh_passenger" depart="875.34" departLane="best" departSpeed="max" from="389635746#0" to="94392314#1"/>
    <trip id="veh187" type="veh_passenger" depart="880.05" departLane="best" from="69513494#0" to="98726948#27"/>
    <trip id="veh188" type="veh_passenger" depart="884.75" departLane="best" from="672437156#0" to="94524344#5"/>
    <trip id="veh189" type="veh_passenger" depart="889.46" departLane="best" from="94515983" to="672437156#16"/>
    <trip id="veh190" type="veh_passenger" depart="894.17" departLane="best" from="94072644#3" to="39436483#0"/>
    <trip id="veh191" type="veh_passenger" depart="898.87" departLane="best" from="94392478#0" to="415221604#2"/>
    <trip id="veh192" type="veh_passenger" depart="903.58" departLane="best" from="94515987#5" to="94072649#5"/>
    <trip id="veh193" type="veh_passenger" depart="908.29" departLane="best" from="39436460#0" to="-94392418#2"/>
    <trip id="veh194" type="veh_passenger" depart="912.99" departLane="best" from="94131617#3" to="39655532#0"/>
    <trip id="veh195" type="veh_passenger" depart="917.70" departLane="best" from="-624198279#2" to="-94392499#2"/>
    <trip id="veh196" type="veh_passenger" depart="922.40" departLane="best" from="-94392452#5" to="-94515980"/>
    <trip id="veh197" type="veh_passenger" depart="927.11" departLane="best" from="415221604#5" to="-69518092#5"/>
    <trip id="veh198" type="veh_passenger" depart="931.82" departLane="best" from="-94392303#4" to="69518077"/>
    <trip id="veh199" type="veh_passenger" depart="936.52" departLane="best" from="94072641#0" to="-39655532#3"/>
    <trip id="veh200" type="veh_passenger" depart="941.23" departLane="best" from="182979431" to="415221604#0"/>
    <trip id="veh201" type="veh_passenger" depart="945.93" departLane="best" from="193327835#4" to="-94131616#3"/>
    <trip id="veh202" type="veh_passenger" depart="950.64" departLane="best" from="193327859#1" to="94515983"/>
    <trip id="veh203" type="veh_passenger" depart="955.35" departLane="best" from="648471464#2" to="69518082#0"/>
    <trip id="veh204" type="veh_passenger" depart="960.05" departLane="best" from="94515921#1" to="94131614#0"/>
    <trip id="veh205" type="veh_passenger" depart="964.76" departLane="best" from="-98726948#7" to="-103273019#1"/>
    <trip id="veh206" type="veh_passenger" depart="969.47" departLane="best" from="-98180534#2" to="94131611#1"/>
    <trip id="veh207" type="veh_passenger" depart="974.17" departLane="best" departSpeed="max" from="94515919" to="98180514"/>
    <trip id="veh208" type="veh_passenger" depart="978.88" departLane="best" from="193327859#0" to="94131609#0"/>
    <trip id="veh209" type="veh_passenger" depart="983.58" departLane="best" from="214274760#0" to="-198609870#1"/>
    <trip id="veh210" type="veh_passenger" depart="988.29" departLane="best" from="-94518685#3" to="69512870"/>
    <trip id="veh211" type="veh_passenger" depart="993.00" departLane="best" from="153988081#1" to="-94072641#0"/>
    <trip id="veh212" type="veh_passenger" depart="997.70" departLane="best" departSpeed="max" from="39436457#0" to="-690099785#9"/>
    <trip id="veh213" type="veh_passenger" depart="1002.41" departLane="best" from="672437156#6" to="-198609869"/>
    <trip id="veh214" type="veh_passenger" depart="1007.11" departLane="best" from="103269601" to="44360745#5"/>
    <trip id="veh215" type="veh_passenger" depart="1011.82" departLane="best" from="-198609869" to="688819561#3"/>
    <trip id="veh216" type="veh_passenger" depart="1016.53" departLane="best" from="-69518092#1" to="389635746#2"/>
    <trip id="veh217" type="veh_passenger" depart="1021.23" departLane="best" from="-94131616#7" to="-94515987#7"/>
    <trip id="veh218" type="veh_passenger" depart="1025.94" departLane="best" from="94131616#8" to="-98726948#5"/>
    <trip id="veh219" type="veh_passenger" depart="1030.65" departLane="best" from="94131616#0" to="94392435#0"/>
    <trip id="veh220" type="veh_passenger" depart="1035.35" departLane="best" from="-94392376#1" to="-672437156#1"/>
    <trip id="veh221" type="veh_passenger" depart="1040.06" departLane="best" from="-193327835#1" to="415221603#9"/>
    <trip id="veh222" type="veh_passenger" depart="1044.76" departLane="best" from="98726975" to="-98180534#1"/>
    <trip id="veh223" type="veh_passenger" depart="1049.47" departLane="best" departSpeed="max" from="691691444#0" to="94131611#2"/>
    <trip id="veh224" type="veh_passenger" depart="1054.18" departLane="best" from="98180534#1" to="-94131614#1"/>
    <trip id="veh225" type="veh_passenger" depart="1058.88" departLane="best" from="-193327835#1" to="-69518096#7"/>
    <trip id="veh226" type="veh_passenger" depart="1063.59" departLane="best" from="-690099785#6" to="691691443#0"/>
    <trip id="veh227" type="veh_passenger" depart="1068.29" departLane="best" from="709823201#3" to="94131614#1"/>
    <trip id="veh228" type="veh_passenger" depart="1073.00" departLane="best" from="94131615#0" to="-682818878#1"/>
    <trip id="veh229" type="veh_passenger" depart="1077.71" departLane="best" from="94392452#0" to="98180561#1"/>
    <trip id="veh230" type="veh_passenger" depart="1082.41" departLane="best" from="-672437156#6" to="-193327859#0"/>
    <trip id="veh231" type="veh_passenger" depart="1087.12" departLane="best" from="-94515961" to="692236964"/>
    <trip id="veh232" type="veh_passenger" depart="1091.82" departLane="best" from="98180561#1" to="103273019#0"/>
    <trip id="veh233" type="veh_passenger" depart="1096.53" departLane="best" from="94072643#6" to="-580820976"/>
    <trip id="veh234" type="veh_passenger" depart="1101.24" departLane="best" from="69518096#3" to="672437156#9"/>
    <trip id="veh235" type="veh_passenger" depart="1105.94" departLane="best" from="-672437156#3" to="94131616#1"/>
    <trip id="veh236" type="veh_passenger" depart="1110.65" departLane="best" departSpeed="max" from="94515919" to="672437156#10"/>
    <trip id="veh237" type="veh_passenger" depart="1115.36" departLane="best" from="-690099785#1" to="98726948#20"/>
    <trip id="veh238" type="veh_passenger" depart="1120.06" departLane="best" from="94392314#2" to="-98180514"/>
    <trip id="veh239" type="veh_passenger" depart="1124.77" departLane="best" from="209301329#1" to="-98726948#23"/>
    <trip id="veh240" type="veh_passenger" depart="1129.47" departLane="best" from="39655484#0" to="-94520076#10"/>
    <trip id="veh241" type="veh_passenger" depart="1134.18" departLane="best" departSpeed="max" from="94515919" to="94392383#1"/>
    <trip id="veh242" type="veh_passenger" depart="1138.89" departLane="best" from="-672437156#5" to="98180555#5"/>
    <trip id="veh243" type="veh_passenger" depart="1143.59" departLane="best" from="94072641#1" to="214274760#0"/>
    <trip id="veh244" type="veh_passenger" depart="1148.30" departLane="best" from="94131611#1" to="98180561#2"/>
    <trip id="veh245" type="veh_passenger" depart="1153.00" departLane="best" from="-94392452#0" to="94392356"/>
    <trip id="veh246" type="veh_passenger" depart="1157.71" departLane="best" from="415221604#5" to="39436461#0"/>
    <trip id="veh247" type="veh_passenger" depart="1162.42" departLane="best" from="214274760#0" to="94072643#3"/>
    <trip id="veh248" type="veh_passenger" depart="1167.12" departLane="best" from="-94392440" to="94392491"/>
    <trip id="veh249" type="veh_passenger" depart="1171.83" departLane="best" from="94515954#2" to="-94392362#2"/>
    <trip id="veh250" type="veh_passenger" depart="1176.54" departLane="best" departSpeed="max" from="389635746#0" to="672437156#15"/>
    <trip id="veh251" type="veh_passenger" depart="1181.24" departLane="best" from="-98726948#4" to="-198609870#1"/>