<?xml version="1.0" encoding="UTF-8"?>

<!-- generated on Tue Jun 23 18:56:14 2020 by Eclipse SUMO netedit Version v1_6_0+0573-c5198cd671
<configuration xmlns:xsi="http://www.w3.org/2001/XMLSchema-instance" xsi:noNamespaceSchemaLocation="http://sumo.dlr.de/xsd/netconvertConfiguration.xsd">

    <input>
        <sumo-net-file value="/mnt/l/Users/tomoya/Document/WSL_home/sumo/mytest/shinjuku/map/data3/osm.net.xml"/>
    </input>

    <output>
        <output-file value="/mnt/l/Users/tomoya/Document/WSL_home/sumo/mytest/shinjuku/map/data3/osm_edit.net.xml"/>
        <output.street-names value="true"/>
    </output>

    <processing>
        <geometry.min-radius.fix.railways value="false"/>
        <geometry.max-grade.fix value="false"/>
        <offset.disable-normalization value="true"/>
        <lefthand value="true"/>
    </processing>

    <junctions>
        <no-turnarounds value="true"/>
        <junctions.corner-detail value="5"/>
        <junctions.limit-turn-speed value="5.5"/>
        <rectangular-lane-cut value="false"/>
    </junctions>

    <pedestrian>
        <walkingareas value="false"/>
    </pedestrian>

    <report>
        <aggregate-warnings value="5"/>
    </report>

</configuration>
-->

<net version="1.6" junctionCornerDetail="5" lefthand="true" limitTurnSpeed="5.50" xmlns:xsi="http://www.w3.org/2001/XMLSchema-instance" xsi:noNamespaceSchemaLocation="http://sumo.dlr.de/xsd/net_file.xsd">

    <location netOffset="-381960.93,-3951189.10" convBoundary="0.00,0.00,2135.45,1694.52" origBoundary="139.695242,35.658965,139.720723,35.733383" projParameter="+proj=utm +zone=54 +ellps=WGS84 +datum=WGS84 +units=m +no_defs"/>

    <type id="highway.bridleway" priority="1" numLanes="1" speed="2.78" allow="pedestrian" oneway="1" width="2.00"/>
    <type id="highway.bus_guideway" priority="1" numLanes="1" speed="27.78" allow="bus" oneway="1"/>
    <type id="highway.cycleway" priority="1" numLanes="1" speed="8.33" allow="bicycle" oneway="0" width="1.00"/>
    <type id="highway.footway" priority="1" numLanes="1" speed="2.78" allow="pedestrian" oneway="1" width="2.00"/>
    <type id="highway.ford" priority="1" numLanes="1" speed="2.78" allow="army" oneway="0"/>
    <type id="highway.living_street" priority="2" numLanes="1" speed="2.78" disallow="tram rail_urban rail rail_electric rail_fast ship" oneway="0"/>
    <type id="highway.motorway" priority="14" numLanes="2" speed="39.44" allow="private emergency authority army vip passenger hov taxi bus coach delivery truck trailer motorcycle evehicle custom1 custom2" oneway="1"/>
    <type id="highway.motorway_link" priority="9" numLanes="1" speed="22.22" allow="private emergency authority army vip passenger hov taxi bus coach delivery truck trailer motorcycle evehicle custom1 custom2" oneway="1"/>
    <type id="highway.path" priority="1" numLanes="1" speed="2.78" allow="pedestrian bicycle" oneway="1" width="2.00"/>
    <type id="highway.pedestrian" priority="1" numLanes="1" speed="2.78" allow="pedestrian" oneway="1" width="2.00"/>
    <type id="highway.primary" priority="12" numLanes="2" speed="27.78" disallow="tram rail_urban rail rail_electric rail_fast ship" oneway="0"/>
    <type id="highway.primary_link" priority="7" numLanes="1" speed="22.22" disallow="tram rail_urban rail rail_electric rail_fast ship" oneway="0"/>
    <type id="highway.raceway" priority="15" numLanes="2" speed="83.33" allow="vip" oneway="0"/>
    <type id="highway.residential" priority="3" numLanes="1" speed="13.89" disallow="tram rail_urban rail rail_electric rail_fast ship" oneway="0"/>
    <type id="highway.secondary" priority="11" numLanes="1" speed="27.78" disallow="tram rail_urban rail rail_electric rail_fast ship" oneway="0"/>
    <type id="highway.secondary_link" priority="6" numLanes="1" speed="22.22" disallow="tram rail_urban rail rail_electric rail_fast ship" oneway="0"/>
    <type id="highway.service" priority="1" numLanes="1" speed="5.56" allow="pedestrian delivery bicycle" oneway="0"/>
    <type id="highway.stairs" priority="1" numLanes="1" speed="1.39" allow="pedestrian" oneway="1" width="2.00"/>
    <type id="highway.step" priority="1" numLanes="1" speed="1.39" allow="pedestrian" oneway="1" width="2.00"/>
    <type id="highway.steps" priority="1" numLanes="1" speed="1.39" allow="pedestrian" oneway="1" width="2.00"/>
    <type id="highway.tertiary" priority="10" numLanes="1" speed="22.22" disallow="tram rail_urban rail rail_electric rail_fast ship" oneway="0"/>
    <type id="highway.tertiary_link" priority="5" numLanes="1" speed="22.22" disallow="tram rail_urban rail rail_electric rail_fast ship" oneway="0"/>
    <type id="highway.track" priority="1" numLanes="1" speed="5.56" disallow="tram rail_urban rail rail_electric rail_fast ship" oneway="0"/>
    <type id="highway.trunk" priority="13" numLanes="2" speed="27.78" disallow="pedestrian bicycle tram rail_urban rail rail_electric rail_fast ship" oneway="0"/>
    <type id="highway.trunk_link" priority="8" numLanes="1" speed="22.22" disallow="pedestrian bicycle tram rail_urban rail rail_electric rail_fast ship" oneway="0"/>
    <type id="highway.unclassified" priority="4" numLanes="1" speed="13.89" disallow="tram rail_urban rail rail_electric rail_fast ship" oneway="0"/>
    <type id="highway.unsurfaced" priority="1" numLanes="1" speed="8.33" disallow="tram rail_urban rail rail_electric rail_fast ship" oneway="0"/>
    <type id="railway.highspeed" priority="21" numLanes="1" speed="69.44" allow="rail_fast" oneway="1"/>
    <type id="railway.light_rail" priority="19" numLanes="1" speed="27.78" allow="rail_urban" oneway="1"/>
    <type id="railway.preserved" priority="16" numLanes="1" speed="27.78" allow="rail" oneway="1"/>
    <type id="railway.rail" priority="20" numLanes="1" speed="44.44" allow="rail" oneway="1"/>
    <type id="railway.subway" priority="18" numLanes="1" speed="27.78" allow="rail_urban" oneway="1"/>
    <type id="railway.tram" priority="17" numLanes="1" speed="13.89" allow="tram" oneway="1"/>

    <edge id=":1093469818_0" function="internal">
        <lane id=":1093469818_0_0" index="0" disallow="tram rail_urban rail rail_electric rail_fast ship" speed="3.65" length="4.67" shape="1558.35,1405.56 1558.66,1406.97 1559.26,1407.63 1560.15,1407.55 1561.33,1406.72"/>
    </edge>
    <edge id=":1093626646_0" function="internal">
        <lane id=":1093626646_0_0" index="0" disallow="tram rail_urban rail rail_electric rail_fast ship" speed="3.65" length="4.67" shape="963.59,1695.36 964.90,1695.96 965.79,1695.88 966.26,1695.12 966.31,1693.68"/>
    </edge>
    <edge id=":1093626771_0" function="internal">
        <lane id=":1093626771_0_0" index="0" disallow="tram rail_urban rail rail_electric rail_fast ship" speed="6.30" length="9.04" shape="827.07,1378.67 824.67,1379.40 822.67,1379.16 821.09,1377.92 819.92,1375.70"/>
    </edge>
    <edge id=":1093626771_1" function="internal">
        <lane id=":1093626771_1_0" index="0" disallow="tram rail_urban rail rail_electric rail_fast ship" speed="8.43" length="14.32" shape="827.07,1378.67 823.69,1380.83 821.64,1383.48 820.91,1386.64 821.51,1390.30"/>
    </edge>
    <edge id=":1093626771_2" function="internal">
        <lane id=":1093626771_2_0" index="0" disallow="tram rail_urban rail rail_electric rail_fast ship" speed="3.65" length="4.67" shape="827.07,1378.67 826.33,1379.90 826.31,1380.80 827.01,1381.35 828.44,1381.56"/>
    </edge>
    <edge id=":1093626771_3" function="internal">
        <lane id=":1093626771_3_0" index="0" disallow="tram rail_urban rail rail_electric rail_fast ship" speed="7.02" length="9.63" shape="824.55,1389.32 824.17,1386.91 824.69,1384.81 826.11,1383.03 828.44,1381.56"/>
    </edge>
    <edge id=":1093626771_4" function="internal">
        <lane id=":1093626771_4_0" index="0" disallow="tram rail_urban rail rail_electric rail_fast ship" speed="13.89" length="14.39" shape="824.55,1389.32 819.92,1375.70"/>
    </edge>
    <edge id=":1093626771_5" function="internal">
        <lane id=":1093626771_5_0" index="0" disallow="tram rail_urban rail rail_electric rail_fast ship" speed="3.65" length="2.34" shape="824.55,1389.32 823.42,1388.43 822.54,1388.29"/>
    </edge>
    <edge id=":1093626771_9" function="internal">
        <lane id=":1093626771_9_0" index="0" disallow="tram rail_urban rail rail_electric rail_fast ship" speed="3.65" length="2.34" shape="822.54,1388.29 821.90,1388.92 821.51,1390.30"/>
    </edge>
    <edge id=":1093626771_6" function="internal">
        <lane id=":1093626771_6_0" index="0" disallow="tram rail_urban rail rail_electric rail_fast ship" speed="13.89" length="14.29" shape="816.91,1376.77 821.51,1390.30"/>
    </edge>
    <edge id=":1093626771_7" function="internal">
        <lane id=":1093626771_7_0" index="0" disallow="tram rail_urban rail rail_electric rail_fast ship" speed="7.83" length="5.81" shape="816.91,1376.77 818.80,1380.35 820.18,1381.44"/>
    </edge>
    <edge id=":1093626771_8" function="internal">
        <lane id=":1093626771_8_0" index="0" disallow="tram rail_urban rail rail_electric rail_fast ship" speed="3.65" length="2.34" shape="816.91,1376.77 818.06,1377.63 818.95,1377.74"/>
    </edge>
    <edge id=":1093626771_10" function="internal">
        <lane id=":1093626771_10_0" index="0" disallow="tram rail_urban rail rail_electric rail_fast ship" speed="7.83" length="8.77" shape="820.18,1381.44 821.35,1382.35 824.56,1382.75 828.44,1381.56"/>
    </edge>
    <edge id=":1093626771_11" function="internal">
        <lane id=":1093626771_11_0" index="0" disallow="tram rail_urban rail rail_electric rail_fast ship" speed="3.65" length="2.34" shape="818.95,1377.74 819.57,1377.10 819.92,1375.70"/>
    </edge>
    <edge id=":1093685728_0" function="internal">
        <lane id=":1093685728_0_0" index="0" disallow="tram rail_urban rail rail_electric rail_fast ship" speed="6.51" length="9.03" shape="1162.97,477.66 1165.45,477.62 1167.34,478.39 1168.65,479.96 1169.37,482.32"/>
    </edge>
    <edge id=":1093685728_1" function="internal">
        <lane id=":1093685728_1_0" index="0" disallow="tram rail_urban rail rail_electric rail_fast ship" speed="3.65" length="4.67" shape="1162.97,477.66 1164.03,476.68 1164.31,475.83 1163.79,475.10 1162.48,474.50"/>
    </edge>
    <edge id=":1093685728_2" function="internal">
        <lane id=":1093685728_2_0" index="0" disallow="tram rail_urban rail rail_electric rail_fast ship" speed="6.58" length="9.10" shape="1167.33,468.11 1167.30,470.58 1166.48,472.46 1164.87,473.77 1162.48,474.50"/>
    </edge>
    <edge id=":1093685728_3" function="internal">
        <lane id=":1093685728_3_0" index="0" disallow="tram rail_urban rail rail_electric rail_fast ship" speed="13.89" length="14.32" shape="1167.33,468.11 1169.37,482.32"/>
        <lane id=":1093685728_3_1" index="1" disallow="tram rail_urban rail rail_electric rail_fast ship" speed="13.89" length="14.32" shape="1170.50,467.69 1172.53,481.83"/>
    </edge>
    <edge id=":1093685736_0" function="internal">
        <lane id=":1093685736_0_0" index="0" disallow="tram rail_urban rail rail_electric rail_fast ship" speed="3.92" length="2.32" shape="1356.97,1519.73 1356.34,1519.72 1355.84,1519.53 1355.47,1519.15 1355.22,1518.58"/>
    </edge>
    <edge id=":1093685736_1" function="internal">
        <lane id=":1093685736_1_0" index="0" disallow="tram rail_urban rail rail_electric rail_fast ship" speed="6.10" length="6.97" shape="1357.39,1522.90 1355.52,1522.89 1354.02,1522.31 1352.89,1521.16 1352.14,1519.45"/>
    </edge>
    <edge id=":1093685773_0" function="internal">
        <lane id=":1093685773_0_0" index="0" disallow="tram rail_urban rail rail_electric rail_fast ship" speed="6.04" length="9.31" shape="1226.61,756.20 1224.20,756.80 1222.36,756.29 1221.09,754.65 1220.39,751.89"/>
    </edge>
    <edge id=":1093685773_1" function="internal">
        <lane id=":1093685773_1_0" index="0" disallow="tram rail_urban rail rail_electric rail_fast ship" speed="3.71" length="4.91" shape="1226.61,756.20 1225.44,757.16 1225.10,758.04 1225.61,758.83 1226.94,759.54"/>
    </edge>
    <edge id=":1093685773_2" function="internal">
        <lane id=":1093685773_2_0" index="0" disallow="tram rail_urban rail rail_electric rail_fast ship" speed="7.24" length="8.84" shape="1222.11,766.17 1222.23,764.14 1223.07,762.35 1224.64,760.82 1226.94,759.54"/>
    </edge>
    <edge id=":1093685773_3" function="internal">
        <lane id=":1093685773_3_0" index="0" disallow="tram rail_urban rail rail_electric rail_fast ship" speed="13.89" length="14.37" shape="1222.11,766.17 1220.39,751.89"/>
        <lane id=":1093685773_3_1" index="1" disallow="tram rail_urban rail rail_electric rail_fast ship" speed="13.89" length="14.37" shape="1218.93,766.53 1217.21,752.29"/>
    </edge>
    <edge id=":1093725256_0" function="internal">
        <lane id=":1093725256_0_0" index="0" disallow="tram rail_urban rail rail_electric rail_fast ship" speed="3.65" length="4.67" shape="1766.33,1392.96 1767.32,1394.01 1768.17,1394.28 1768.90,1393.75 1769.49,1392.44"/>
    </edge>
    <edge id=":1093725294_0" function="internal">
        <lane id=":1093725294_0_0" index="0" disallow="tram rail_urban rail rail_electric rail_fast ship" speed="7.10" length="9.72" shape="1436.95,1345.95 1434.52,1346.19 1432.43,1345.55 1430.69,1344.02 1429.30,1341.62"/>
    </edge>
    <edge id=":1093725294_1" function="internal">
        <lane id=":1093725294_1_0" index="0" disallow="tram rail_urban rail rail_electric rail_fast ship" speed="13.89" length="14.39" shape="1436.95,1345.95 1423.11,1349.88"/>
    </edge>
    <edge id=":1093725294_2" function="internal">
        <lane id=":1093725294_2_0" index="0" disallow="tram rail_urban rail rail_electric rail_fast ship" speed="3.65" length="4.67" shape="1436.95,1345.95 1435.99,1347.02 1435.81,1347.90 1436.40,1348.57 1437.76,1349.04"/>
    </edge>
    <edge id=":1093725294_3" function="internal">
        <lane id=":1093725294_3_0" index="0" disallow="tram rail_urban rail rail_electric rail_fast ship" speed="13.89" length="14.27" shape="1424.04,1352.94 1437.76,1349.04"/>
    </edge>
    <edge id=":1093725294_4" function="internal">
        <lane id=":1093725294_4_0" index="0" disallow="tram rail_urban rail rail_electric rail_fast ship" speed="7.81" length="14.63" shape="1424.04,1352.94 1427.73,1351.22 1429.83,1348.75 1430.35,1345.55 1429.30,1341.62"/>
    </edge>
    <edge id=":1093725294_5" function="internal">
        <lane id=":1093725294_5_0" index="0" disallow="tram rail_urban rail rail_electric rail_fast ship" speed="3.65" length="2.56" shape="1424.04,1352.94 1424.95,1351.83 1425.10,1350.95 1424.95,1350.79"/>
    </edge>
    <edge id=":1093725294_9" function="internal">
        <lane id=":1093725294_9_0" index="0" disallow="tram rail_urban rail rail_electric rail_fast ship" speed="3.65" length="2.11" shape="1424.95,1350.79 1424.49,1350.30 1423.11,1349.88"/>
    </edge>
    <edge id=":1093725294_6" function="internal">
        <lane id=":1093725294_6_0" index="0" disallow="tram rail_urban rail rail_electric rail_fast ship" speed="6.28" length="9.04" shape="1426.36,1342.88 1427.01,1345.31 1426.69,1347.29 1425.39,1348.81 1423.11,1349.88"/>
    </edge>
    <edge id=":1093725294_7" function="internal">
        <lane id=":1093725294_7_0" index="0" disallow="tram rail_urban rail rail_electric rail_fast ship" speed="8.51" length="4.26" shape="1426.36,1342.88 1428.40,1346.35 1428.58,1346.51"/>
    </edge>
    <edge id=":1093725294_8" function="internal">
        <lane id=":1093725294_8_0" index="0" disallow="tram rail_urban rail rail_electric rail_fast ship" speed="3.65" length="2.08" shape="1426.36,1342.88 1427.57,1343.67 1428.20,1343.70"/>
    </edge>
    <edge id=":1093725294_10" function="internal">
        <lane id=":1093725294_10_0" index="0" disallow="tram rail_urban rail rail_electric rail_fast ship" speed="8.51" length="10.07" shape="1428.58,1346.51 1430.98,1348.53 1434.10,1349.43 1437.76,1349.04"/>
    </edge>
    <edge id=":1093725294_11" function="internal">
        <lane id=":1093725294_11_0" index="0" disallow="tram rail_urban rail rail_electric rail_fast ship" speed="3.65" length="2.59" shape="1428.20,1343.70 1428.46,1343.72 1429.04,1343.04 1429.30,1341.62"/>
    </edge>
    <edge id=":1093725295_0" function="internal">
        <lane id=":1093725295_0_0" index="0" disallow="tram rail_urban rail rail_electric rail_fast ship" speed="6.73" length="9.73" shape="1326.15,1377.80 1323.44,1378.17 1321.29,1377.62 1319.68,1376.16 1318.63,1373.78"/>
    </edge>
    <edge id=":1093725295_1" function="internal">
        <lane id=":1093725295_1_0" index="0" disallow="tram rail_urban rail rail_electric rail_fast ship" speed="3.66" length="4.72" shape="1326.15,1377.80 1325.06,1378.76 1324.76,1379.61 1325.27,1380.36 1326.57,1381.01"/>
    </edge>
    <edge id=":1093725295_2" function="internal">
        <lane id=":1093725295_2_0" index="0" disallow="tram rail_urban rail rail_electric rail_fast ship" speed="6.54" length="9.03" shape="1322.33,1387.73 1322.09,1385.36 1322.72,1383.46 1324.22,1382.00 1326.57,1381.01"/>
    </edge>
    <edge id=":1093725295_3" function="internal">
        <lane id=":1093725295_3_0" index="0" disallow="tram rail_urban rail rail_electric rail_fast ship" speed="13.89" length="14.40" shape="1322.33,1387.73 1318.63,1373.78"/>
        <lane id=":1093725295_3_1" index="1" disallow="tram rail_urban rail rail_electric rail_fast ship" speed="13.89" length="14.40" shape="1319.23,1388.53 1315.54,1374.63"/>
    </edge>
    <edge id=":1093725324_0" function="internal">
        <lane id=":1093725324_0_0" index="0" disallow="tram rail_urban rail rail_electric rail_fast ship" speed="7.42" length="10.11" shape="1478.38,1335.25 1475.95,1335.40 1473.82,1334.67 1471.97,1333.04 1470.43,1330.52"/>
    </edge>
    <edge id=":1093725324_1" function="internal">
        <lane id=":1093725324_1_0" index="0" disallow="tram rail_urban rail rail_electric rail_fast ship" speed="13.89" length="14.48" shape="1478.38,1335.25 1464.33,1338.75"/>
    </edge>
    <edge id=":1093725324_2" function="internal">
        <lane id=":1093725324_2_0" index="0" disallow="tram rail_urban rail rail_electric rail_fast ship" speed="3.65" length="2.34" shape="1478.38,1335.25 1477.39,1336.30 1477.19,1337.17"/>
    </edge>
    <edge id=":1093725324_9" function="internal">
        <lane id=":1093725324_9_0" index="0" disallow="tram rail_urban rail rail_electric rail_fast ship" speed="3.65" length="2.34" shape="1477.19,1337.17 1477.76,1337.86 1479.11,1338.36"/>
    </edge>
    <edge id=":1093725324_3" function="internal">
        <lane id=":1093725324_3_0" index="0" disallow="tram rail_urban rail rail_electric rail_fast ship" speed="13.89" length="14.39" shape="1465.15,1341.84 1479.11,1338.36"/>
    </edge>
    <edge id=":1093725324_4" function="internal">
        <lane id=":1093725324_4_0" index="0" disallow="tram rail_urban rail rail_electric rail_fast ship" speed="7.71" length="5.89" shape="1465.15,1341.84 1469.02,1340.20 1470.14,1338.95"/>
    </edge>
    <edge id=":1093725324_5" function="internal">
        <lane id=":1093725324_5_0" index="0" disallow="tram rail_urban rail rail_electric rail_fast ship" speed="3.65" length="2.34" shape="1465.15,1341.84 1466.10,1340.76 1466.29,1339.89"/>
    </edge>
    <edge id=":1093725324_10" function="internal">
        <lane id=":1093725324_10_0" index="0" disallow="tram rail_urban rail rail_electric rail_fast ship" speed="7.71" length="9.05" shape="1470.14,1338.95 1471.19,1337.77 1471.66,1334.54 1470.43,1330.52"/>
    </edge>
    <edge id=":1093725324_11" function="internal">
        <lane id=":1093725324_11_0" index="0" disallow="tram rail_urban rail rail_electric rail_fast ship" speed="3.65" length="2.34" shape="1466.29,1339.89 1465.70,1339.22 1464.33,1338.75"/>
    </edge>
    <edge id=":1093725324_6" function="internal">
        <lane id=":1093725324_6_0" index="0" disallow="tram rail_urban rail rail_electric rail_fast ship" speed="6.15" length="9.06" shape="1467.53,1331.88 1468.28,1334.32 1468.00,1336.28 1466.68,1337.75 1464.33,1338.75"/>
    </edge>
    <edge id=":1093725324_7" function="internal">
        <lane id=":1093725324_7_0" index="0" disallow="tram rail_urban rail rail_electric rail_fast ship" speed="8.78" length="14.50" shape="1467.53,1331.88 1469.72,1335.39 1472.38,1337.64 1475.51,1338.63 1479.11,1338.36"/>
    </edge>
    <edge id=":1093725324_8" function="internal">
        <lane id=":1093725324_8_0" index="0" disallow="tram rail_urban rail rail_electric rail_fast ship" speed="3.65" length="4.67" shape="1467.53,1331.88 1468.77,1332.63 1469.66,1332.65 1470.22,1331.94 1470.43,1330.52"/>
    </edge>
    <edge id=":1093725374_0" function="internal">
        <lane id=":1093725374_0_0" index="0" disallow="tram rail_urban rail rail_electric rail_fast ship" speed="3.65" length="4.67" shape="1448.17,1283.32 1446.93,1282.57 1446.04,1282.55 1445.48,1283.26 1445.27,1284.68"/>
    </edge>
    <edge id=":1093725376_0" function="internal">
        <lane id=":1093725376_0_0" index="0" disallow="tram rail_urban rail rail_electric rail_fast ship" speed="7.20" length="10.30" shape="1375.23,1364.18 1372.49,1364.58 1370.19,1364.04 1368.33,1362.57 1366.90,1360.17"/>
    </edge>
    <edge id=":1093725376_1" function="internal">
        <lane id=":1093725376_1_0" index="0" disallow="tram rail_urban rail rail_electric rail_fast ship" speed="13.89" length="15.21" shape="1375.23,1364.18 1360.59,1368.32"/>
    </edge>
    <edge id=":1093725376_2" function="internal">
        <lane id=":1093725376_2_0" index="0" disallow="tram rail_urban rail rail_electric rail_fast ship" speed="7.80" length="14.63" shape="1375.23,1364.18 1371.51,1365.87 1369.37,1368.30 1368.81,1371.48 1369.84,1375.42"/>
    </edge>
    <edge id=":1093725376_3" function="internal">
        <lane id=":1093725376_3_0" index="0" disallow="tram rail_urban rail rail_electric rail_fast ship" speed="3.65" length="4.67" shape="1375.23,1364.18 1374.30,1365.29 1374.14,1366.17 1374.75,1366.82 1376.12,1367.26"/>
    </edge>
    <edge id=":1093725376_4" function="internal">
        <lane id=":1093725376_4_0" index="0" disallow="tram rail_urban rail rail_electric rail_fast ship" speed="6.26" length="9.03" shape="1372.80,1374.20 1372.16,1371.77 1372.50,1369.80 1373.82,1368.30 1376.12,1367.26"/>
    </edge>
    <edge id=":1093725376_5" function="internal">
        <lane id=":1093725376_5_0" index="0" disallow="tram rail_urban rail rail_electric rail_fast ship" speed="13.89" length="15.22" shape="1372.80,1374.20 1366.90,1360.17"/>
    </edge>
    <edge id=":1093725376_6" function="internal">
        <lane id=":1093725376_6_0" index="0" disallow="tram rail_urban rail rail_electric rail_fast ship" speed="8.64" length="6.17" shape="1372.80,1374.20 1370.72,1370.73 1369.05,1369.42"/>
    </edge>
    <edge id=":1093725376_7" function="internal">
        <lane id=":1093725376_7_0" index="0" disallow="tram rail_urban rail rail_electric rail_fast ship" speed="3.65" length="2.34" shape="1372.80,1374.20 1371.60,1373.40 1370.71,1373.33"/>
    </edge>
    <edge id=":1093725376_16" function="internal">
        <lane id=":1093725376_16_0" index="0" disallow="tram rail_urban rail rail_electric rail_fast ship" speed="8.64" length="8.88" shape="1369.05,1369.42 1368.00,1368.59 1364.62,1367.78 1360.59,1368.32"/>
    </edge>
    <edge id=":1093725376_17" function="internal">
        <lane id=":1093725376_17_0" index="0" disallow="tram rail_urban rail rail_electric rail_fast ship" speed="3.65" length="2.34" shape="1370.71,1373.33 1370.12,1374.01 1369.84,1375.42"/>
    </edge>
    <edge id=":1093725376_8" function="internal">
        <lane id=":1093725376_8_0" index="0" disallow="tram rail_urban rail rail_electric rail_fast ship" speed="7.26" length="10.34" shape="1361.44,1371.40 1364.22,1371.03 1366.54,1371.58 1368.42,1373.04 1369.84,1375.42"/>
    </edge>
    <edge id=":1093725376_9" function="internal">
        <lane id=":1093725376_9_0" index="0" disallow="tram rail_urban rail rail_electric rail_fast ship" speed="13.89" length="15.25" shape="1361.44,1371.40 1376.12,1367.26"/>
    </edge>
    <edge id=":1093725376_10" function="internal">
        <lane id=":1093725376_10_0" index="0" disallow="tram rail_urban rail rail_electric rail_fast ship" speed="7.79" length="14.70" shape="1361.44,1371.40 1365.20,1369.76 1367.37,1367.34 1367.93,1364.14 1366.90,1360.17"/>
    </edge>
    <edge id=":1093725376_11" function="internal">
        <lane id=":1093725376_11_0" index="0" disallow="tram rail_urban rail rail_electric rail_fast ship" speed="3.65" length="4.67" shape="1361.44,1371.40 1362.39,1370.31 1362.56,1369.43 1361.96,1368.77 1360.59,1368.32"/>
    </edge>
    <edge id=":1093725376_12" function="internal">
        <lane id=":1093725376_12_0" index="0" disallow="tram rail_urban rail rail_electric rail_fast ship" speed="6.25" length="9.05" shape="1363.95,1361.40 1364.59,1363.85 1364.24,1365.82 1362.91,1367.30 1360.59,1368.32"/>
    </edge>
    <edge id=":1093725376_13" function="internal">
        <lane id=":1093725376_13_0" index="0" disallow="tram rail_urban rail rail_electric rail_fast ship" speed="13.89" length="15.20" shape="1363.95,1361.40 1369.84,1375.42"/>
    </edge>
    <edge id=":1093725376_14" function="internal">
        <lane id=":1093725376_14_0" index="0" disallow="tram rail_urban rail rail_electric rail_fast ship" speed="8.58" length="6.22" shape="1363.95,1361.40 1366.03,1364.90 1367.72,1366.24"/>
    </edge>
    <edge id=":1093725376_15" function="internal">
        <lane id=":1093725376_15_0" index="0" disallow="tram rail_urban rail rail_electric rail_fast ship" speed="3.65" length="2.34" shape="1363.95,1361.40 1365.15,1362.20 1366.05,1362.26"/>
    </edge>
    <edge id=":1093725376_18" function="internal">
        <lane id=":1093725376_18_0" index="0" disallow="tram rail_urban rail rail_electric rail_fast ship" speed="8.58" length="8.81" shape="1367.72,1366.24 1368.75,1367.05 1372.11,1367.83 1376.12,1367.26"/>
    </edge>
    <edge id=":1093725376_19" function="internal">
        <lane id=":1093725376_19_0" index="0" disallow="tram rail_urban rail rail_electric rail_fast ship" speed="3.65" length="2.34" shape="1366.05,1362.26 1366.63,1361.58 1366.90,1360.17"/>
    </edge>
    <edge id=":1093725411_0" function="internal">
        <lane id=":1093725411_0_0" index="0" disallow="tram rail_urban rail rail_electric rail_fast ship" speed="13.89" length="9.58" shape="1552.94,1294.54 1545.84,1288.10"/>
    </edge>
    <edge id=":1093725411_1" function="internal">
        <lane id=":1093725411_1_0" index="0" disallow="tram rail_urban rail rail_electric rail_fast ship" speed="5.87" length="8.57" shape="1552.94,1294.54 1550.54,1292.82 1548.55,1292.15 1546.96,1292.55 1545.79,1294.02"/>
    </edge>
    <edge id=":1093725411_2" function="internal">
        <lane id=":1093725411_2_0" index="0" disallow="tram rail_urban rail rail_electric rail_fast ship" speed="7.11" length="8.37" shape="1548.67,1295.42 1549.06,1293.78 1548.72,1292.02 1547.65,1290.12 1545.84,1288.10"/>
    </edge>
    <edge id=":1093725411_3" function="internal">
        <lane id=":1093725411_3_0" index="0" disallow="tram rail_urban rail rail_electric rail_fast ship" speed="3.65" length="4.67" shape="1548.67,1295.42 1548.47,1293.99 1547.93,1293.28 1547.03,1293.29 1545.79,1294.02"/>
    </edge>
    <edge id=":1093725474_0" function="internal">
        <lane id=":1093725474_0_0" index="0" disallow="tram rail_urban rail rail_electric rail_fast ship" speed="6.23" length="9.05" shape="1424.51,1500.67 1422.09,1501.38 1420.11,1501.08 1418.60,1499.79 1417.54,1497.49"/>
    </edge>
    <edge id=":1093725474_1" function="internal">
        <lane id=":1093725474_1_0" index="0" disallow="tram rail_urban rail rail_electric rail_fast ship" speed="11.11" length="14.88" shape="1424.51,1500.67 1420.55,1502.46 1417.80,1503.59 1414.98,1504.55 1410.81,1505.78"/>
        <lane id=":1093725474_1_1" index="1" disallow="tram rail_urban rail rail_electric rail_fast ship" speed="11.11" length="14.88" shape="1425.84,1503.59 1421.75,1505.43 1418.91,1506.60 1416.00,1507.58 1411.71,1508.85"/>
    </edge>
    <edge id=":1093725474_3" function="internal">
        <lane id=":1093725474_3_0" index="0" disallow="tram rail_urban rail rail_electric rail_fast ship" speed="6.61" length="9.40" shape="1414.47,1498.40 1414.89,1501.04 1414.42,1503.15 1413.06,1504.73 1410.81,1505.78"/>
    </edge>
    <edge id=":1093725474_4" function="internal">
        <lane id=":1093725474_4_0" index="0" disallow="tram rail_urban rail rail_electric rail_fast ship" speed="3.65" length="4.67" shape="1414.47,1498.40 1415.58,1499.32 1416.46,1499.48 1417.11,1498.87 1417.54,1497.49"/>
    </edge>
    <edge id=":1093725482_0" function="internal">
        <lane id=":1093725482_0_0" index="0" disallow="tram rail_urban rail rail_electric rail_fast ship" speed="27.78" length="14.59" shape="1311.34,1179.89 1296.78,1180.56"/>
        <lane id=":1093725482_0_1" index="1" disallow="tram rail_urban rail rail_electric rail_fast ship" speed="27.78" length="14.59" shape="1311.49,1183.08 1296.92,1183.76"/>
    </edge>
    <edge id=":1093725482_2" function="internal">
        <lane id=":1093725482_2_0" index="0" disallow="tram rail_urban rail rail_electric rail_fast ship" speed="8.31" length="5.88" shape="1311.49,1183.08 1306.91,1184.12 1306.06,1184.94"/>
    </edge>
    <edge id=":1093725482_3" function="internal">
        <lane id=":1093725482_3_0" index="0" disallow="tram rail_urban rail rail_electric rail_fast ship" speed="3.65" length="2.34" shape="1311.49,1183.08 1310.33,1183.94 1309.97,1184.76"/>
    </edge>
    <edge id=":1093725482_11" function="internal">
        <lane id=":1093725482_11_0" index="0" disallow="tram rail_urban rail rail_electric rail_fast ship" speed="8.31" length="12.55" shape="1306.06,1184.94 1304.22,1186.71 1303.42,1190.84 1304.50,1196.52"/>
    </edge>
    <edge id=":1093725482_12" function="internal">