<?xml version="1.0" encoding="UTF-8"?>

<!-- generated on Thu Jun 18 08:51:45 2020 by Eclipse SUMO netedit Version v1_6_0+0573-c5198cd671
<configuration xmlns:xsi="http://www.w3.org/2001/XMLSchema-instance" xsi:noNamespaceSchemaLocation="http://sumo.dlr.de/xsd/netconvertConfiguration.xsd">

    <input>
        <sumo-net-file value="/mnt/l/Users/tomoya/Document/WSL_home/sumo/mytest/shinjuku/map/shinjukunormal.net.xml"/>
    </input>

    <output>
        <output-file value="/mnt/l/Users/tomoya/Document/WSL_home/sumo/mytest/shinjuku/map/shinjukunormal_edit.net.xml"/>
    </output>

    <processing>
        <geometry.min-radius.fix.railways value="false"/>
        <geometry.max-grade.fix value="false"/>
        <offset.disable-normalization value="true"/>
        <lefthand value="true"/>
    </processing>

    <junctions>
        <no-turnarounds value="true"/>
        <junctions.corner-detail value="5"/>
        <junctions.limit-turn-speed value="5.5"/>
        <rectangular-lane-cut value="false"/>
    </junctions>

    <pedestrian>
        <walkingareas value="false"/>
    </pedestrian>

    <report>
        <aggregate-warnings value="5"/>
    </report>

</configuration>
-->

<net version="1.6" junctionCornerDetail="5" lefthand="true" limitTurnSpeed="5.50" xmlns:xsi="http://www.w3.org/2001/XMLSchema-instance" xsi:noNamespaceSchemaLocation="http://sumo.dlr.de/xsd/net_file.xsd">

    <location netOffset="-381960.93,-3946898.91" convBoundary="0.00,0.00,2302.92,8259.83" origBoundary="139.695242,35.658965,139.720723,35.733383" projParameter="+proj=utm +zone=54 +ellps=WGS84 +datum=WGS84 +units=m +no_defs"/>

    <type id="highway.bridleway" priority="1" numLanes="1" speed="2.78" allow="pedestrian" oneway="1" width="2.00"/>
    <type id="highway.bus_guideway" priority="1" numLanes="1" speed="27.78" allow="bus" oneway="1"/>
    <type id="highway.cycleway" priority="1" numLanes="1" speed="8.33" allow="bicycle" oneway="0" width="1.00"/>
    <type id="highway.footway" priority="1" numLanes="1" speed="2.78" allow="pedestrian" oneway="1" width="2.00"/>
    <type id="highway.ford" priority="1" numLanes="1" speed="2.78" allow="army" oneway="0"/>
    <type id="highway.living_street" priority="2" numLanes="1" speed="2.78" disallow="tram rail_urban rail rail_electric rail_fast ship" oneway="0"/>
    <type id="highway.motorway" priority="14" numLanes="2" speed="39.44" allow="private emergency authority army vip passenger hov taxi bus coach delivery truck trailer motorcycle evehicle custom1 custom2" oneway="1"/>
    <type id="highway.motorway_link" priority="9" numLanes="1" speed="22.22" allow="private emergency authority army vip passenger hov taxi bus coach delivery truck trailer motorcycle evehicle custom1 custom2" oneway="1"/>
    <type id="highway.path" priority="1" numLanes="1" speed="2.78" allow="pedestrian bicycle" oneway="1" width="2.00"/>
    <type id="highway.pedestrian" priority="1" numLanes="1" speed="2.78" allow="pedestrian" oneway="1" width="2.00"/>
    <type id="highway.primary" priority="12" numLanes="2" speed="27.78" disallow="tram rail_urban rail rail_electric rail_fast ship" oneway="0"/>
    <type id="highway.primary_link" priority="7" numLanes="1" speed="22.22" disallow="tram rail_urban rail rail_electric rail_fast ship" oneway="0"/>
    <type id="highway.raceway" priority="15" numLanes="2" speed="83.33" allow="vip" oneway="0"/>
    <type id="highway.residential" priority="3" numLanes="1" speed="13.89" disallow="tram rail_urban rail rail_electric rail_fast ship" oneway="0"/>
    <type id="highway.secondary" priority="11" numLanes="1" speed="27.78" disallow="tram rail_urban rail rail_electric rail_fast ship" oneway="0"/>
    <type id="highway.secondary_link" priority="6" numLanes="1" speed="22.22" disallow="tram rail_urban rail rail_electric rail_fast ship" oneway="0"/>
    <type id="highway.service" priority="1" numLanes="1" speed="5.56" allow="pedestrian delivery bicycle" oneway="0"/>
    <type id="highway.stairs" priority="1" numLanes="1" speed="1.39" allow="pedestrian" oneway="1" width="2.00"/>
    <type id="highway.step" priority="1" numLanes="1" speed="1.39" allow="pedestrian" oneway="1" width="2.00"/>
    <type id="highway.steps" priority="1" numLanes="1" speed="1.39" allow="pedestrian" oneway="1" width="2.00"/>
    <type id="highway.tertiary" priority="10" numLanes="1" speed="22.22" disallow="tram rail_urban rail rail_electric rail_fast ship" oneway="0"/>
    <type id="highway.tertiary_link" priority="5" numLanes="1" speed="22.22" disallow="tram rail_urban rail rail_electric rail_fast ship" oneway="0"/>
    <type id="highway.track" priority="1" numLanes="1" speed="5.56" allow="pedestrian motorcycle moped bicycle" oneway="0"/>
    <type id="highway.trunk" priority="13" numLanes="2" speed="27.78" disallow="pedestrian bicycle tram rail_urban rail rail_electric rail_fast ship" oneway="0"/>
    <type id="highway.trunk_link" priority="8" numLanes="1" speed="22.22" disallow="pedestrian bicycle tram rail_urban rail rail_electric rail_fast ship" oneway="0"/>
    <type id="highway.unclassified" priority="4" numLanes="1" speed="13.89" disallow="tram rail_urban rail rail_electric rail_fast ship" oneway="0"/>
    <type id="highway.unsurfaced" priority="1" numLanes="1" speed="8.33" disallow="tram rail_urban rail rail_electric rail_fast ship" oneway="0"/>
    <type id="railway.highspeed" priority="21" numLanes="1" speed="69.44" allow="rail_fast" oneway="1"/>
    <type id="railway.light_rail" priority="19" numLanes="1" speed="27.78" allow="rail_urban" oneway="1"/>
    <type id="railway.preserved" priority="16" numLanes="1" speed="27.78" allow="rail" oneway="1"/>
    <type id="railway.rail" priority="20" numLanes="1" speed="44.44" allow="rail" oneway="1"/>
    <type id="railway.subway" priority="18" numLanes="1" speed="27.78" allow="rail_urban" oneway="1"/>
    <type id="railway.tram" priority="17" numLanes="1" speed="13.89" allow="tram" oneway="1"/>

    <edge id=":1093469818_0" function="internal">
        <lane id=":1093469818_0_0" index="0" disallow="tram rail_urban rail rail_electric rail_fast ship" speed="6.51" length="8.90" shape="1560.91,5689.17 1559.71,5691.29 1558.13,5692.54 1556.14,5692.91 1553.76,5692.40"/>
    </edge>
    <edge id=":1093469818_1" function="internal">
        <lane id=":1093469818_1_0" index="0" disallow="tram rail_urban rail rail_electric rail_fast ship" speed="9.14" length="13.56" shape="1560.91,5689.17 1559.95,5692.80 1560.02,5696.09 1561.14,5699.03 1563.29,5701.63"/>
    </edge>
    <edge id=":1093469818_2" function="internal">
        <lane id=":1093469818_2_0" index="0" disallow="tram rail_urban rail rail_electric rail_fast ship" speed="3.65" length="4.67" shape="1560.91,5689.17 1561.22,5690.58 1561.82,5691.24 1562.71,5691.16 1563.89,5690.33"/>
    </edge>
    <edge id=":1093469818_3" function="internal">
        <lane id=":1093469818_3_0" index="0" disallow="tram rail_urban rail rail_electric rail_fast ship" speed="7.81" length="9.69" shape="1565.44,5699.26 1563.95,5697.44 1563.20,5695.34 1563.18,5692.97 1563.89,5690.33"/>
    </edge>
    <edge id=":1093469818_4" function="internal">
        <lane id=":1093469818_4_0" index="0" disallow="tram rail_urban rail rail_electric rail_fast ship" speed="13.89" length="13.64" shape="1565.44,5699.26 1562.72,5697.01 1559.98,5695.22 1557.05,5693.73 1553.76,5692.40"/>
    </edge>
    <edge id=":1093469818_5" function="internal">
        <lane id=":1093469818_5_0" index="0" disallow="tram rail_urban rail rail_electric rail_fast ship" speed="3.65" length="4.67" shape="1565.44,5699.26 1564.02,5699.05 1563.18,5699.37 1562.94,5700.23 1563.29,5701.63"/>
    </edge>
    <edge id=":1093469818_6" function="internal">
        <lane id=":1093469818_6_0" index="0" disallow="tram rail_urban rail rail_electric rail_fast ship" speed="13.89" length="12.42" shape="1552.66,5695.41 1555.78,5696.63 1558.35,5697.90 1560.73,5699.48 1563.29,5701.63"/>
    </edge>
    <edge id=":1093469818_7" function="internal">
        <lane id=":1093469818_7_0" index="0" disallow="tram rail_urban rail rail_electric rail_fast ship" speed="8.01" length="13.99" shape="1552.66,5695.41 1556.40,5696.20 1559.52,5695.62 1562.02,5693.66 1563.89,5690.33"/>
    </edge>
    <edge id=":1093469818_8" function="internal">
        <lane id=":1093469818_8_0" index="0" disallow="tram rail_urban rail rail_electric rail_fast ship" speed="3.65" length="4.67" shape="1552.66,5695.41 1554.06,5695.07 1554.72,5694.45 1554.61,5693.56 1553.76,5692.40"/>
    </edge>
    <edge id=":1093626646_0" function="internal">
        <lane id=":1093626646_0_0" index="0" disallow="tram rail_urban rail rail_electric rail_fast ship" speed="3.65" length="4.67" shape="963.59,5985.54 964.90,5986.14 965.79,5986.06 966.26,5985.30 966.31,5983.86"/>
    </edge>
    <edge id=":1093626771_0" function="internal">
        <lane id=":1093626771_0_0" index="0" disallow="tram rail_urban rail rail_electric rail_fast ship" speed="6.30" length="9.04" shape="827.07,5668.86 824.67,5669.59 822.67,5669.35 821.09,5668.11 819.92,5665.89"/>
    </edge>
    <edge id=":1093626771_1" function="internal">
        <lane id=":1093626771_1_0" index="0" disallow="tram rail_urban rail rail_electric rail_fast ship" speed="8.43" length="14.32" shape="827.07,5668.86 823.69,5671.02 821.64,5673.67 820.91,5676.83 821.51,5680.49"/>
    </edge>
    <edge id=":1093626771_2" function="internal">
        <lane id=":1093626771_2_0" index="0" disallow="tram rail_urban rail rail_electric rail_fast ship" speed="3.65" length="4.67" shape="827.07,5668.86 826.33,5670.09 826.31,5670.99 827.01,5671.54 828.44,5671.75"/>
    </edge>
    <edge id=":1093626771_3" function="internal">
        <lane id=":1093626771_3_0" index="0" disallow="tram rail_urban rail rail_electric rail_fast ship" speed="7.02" length="9.63" shape="824.55,5679.51 824.17,5677.10 824.69,5675.00 826.11,5673.22 828.44,5671.75"/>
    </edge>
    <edge id=":1093626771_4" function="internal">
        <lane id=":1093626771_4_0" index="0" disallow="tram rail_urban rail rail_electric rail_fast ship" speed="13.89" length="14.39" shape="824.55,5679.51 819.92,5665.89"/>
    </edge>
    <edge id=":1093626771_5" function="internal">
        <lane id=":1093626771_5_0" index="0" disallow="tram rail_urban rail rail_electric rail_fast ship" speed="3.65" length="2.34" shape="824.55,5679.51 823.42,5678.62 822.54,5678.48"/>
    </edge>
    <edge id=":1093626771_9" function="internal">
        <lane id=":1093626771_9_0" index="0" disallow="tram rail_urban rail rail_electric rail_fast ship" speed="3.65" length="2.34" shape="822.54,5678.48 821.90,5679.11 821.51,5680.49"/>
    </edge>
    <edge id=":1093626771_6" function="internal">
        <lane id=":1093626771_6_0" index="0" disallow="tram rail_urban rail rail_electric rail_fast ship" speed="13.89" length="14.30" shape="816.91,5666.96 821.51,5680.49"/>
    </edge>
    <edge id=":1093626771_7" function="internal">
        <lane id=":1093626771_7_0" index="0" disallow="tram rail_urban rail rail_electric rail_fast ship" speed="7.83" length="5.81" shape="816.91,5666.96 818.80,5670.54 820.18,5671.63"/>
    </edge>
    <edge id=":1093626771_8" function="internal">
        <lane id=":1093626771_8_0" index="0" disallow="tram rail_urban rail rail_electric rail_fast ship" speed="3.65" length="2.34" shape="816.91,5666.96 818.06,5667.82 818.95,5667.93"/>
    </edge>
    <edge id=":1093626771_10" function="internal">
        <lane id=":1093626771_10_0" index="0" disallow="tram rail_urban rail rail_electric rail_fast ship" speed="7.83" length="8.77" shape="820.18,5671.63 821.35,5672.54 824.56,5672.94 828.44,5671.75"/>
    </edge>
    <edge id=":1093626771_11" function="internal">
        <lane id=":1093626771_11_0" index="0" disallow="tram rail_urban rail rail_electric rail_fast ship" speed="3.65" length="2.34" shape="818.95,5667.93 819.57,5667.29 819.92,5665.89"/>
    </edge>
    <edge id=":1093685728_0" function="internal">
        <lane id=":1093685728_0_0" index="0" disallow="tram rail_urban rail rail_electric rail_fast ship" speed="5.95" length="7.38" shape="1165.10,4767.50 1166.65,4767.62 1167.87,4768.49 1168.78,4770.12 1169.37,4772.50"/>
    </edge>
    <edge id=":1093685728_1" function="internal">
        <lane id=":1093685728_1_0" index="0" disallow="tram rail_urban rail rail_electric rail_fast ship" speed="3.65" length="4.67" shape="1165.10,4767.50 1166.16,4766.53 1166.43,4765.67 1165.92,4764.95 1164.61,4764.34"/>
    </edge>
    <edge id=":1093685728_2" function="internal">
        <lane id=":1093685728_2_0" index="0" disallow="tram rail_urban rail rail_electric rail_fast ship" speed="6.02" length="7.42" shape="1167.33,4758.29 1167.43,4760.73 1167.01,4762.56 1166.07,4763.76 1164.61,4764.34"/>
    </edge>
    <edge id=":1093685728_3" function="internal">
        <lane id=":1093685728_3_0" index="0" disallow="tram rail_urban rail rail_electric rail_fast ship" speed="13.89" length="14.32" shape="1167.33,4758.29 1169.37,4772.50"/>
        <lane id=":1093685728_3_1" index="1" disallow="tram rail_urban rail rail_electric rail_fast ship" speed="13.89" length="14.32" shape="1170.50,4757.87 1172.53,4772.01"/>
    </edge>
    <edge id=":1093685773_0" function="internal">
        <lane id=":1093685773_0_0" index="0" disallow="tram rail_urban rail rail_electric rail_fast ship" speed="5.99" length="7.32" shape="1224.42,5047.26 1222.92,5047.06 1221.74,5046.12 1220.90,5044.46 1220.39,5042.07"/>
    </edge>
    <edge id=":1093685773_1" function="internal">
        <lane id=":1093685773_1_0" index="0" disallow="tram rail_urban rail rail_electric rail_fast ship" speed="3.65" length="4.67" shape="1224.42,5047.26 1223.30,5048.17 1222.98,5049.01 1223.45,5049.76 1224.72,5050.45"/>
    </edge>
    <edge id=":1093685773_2" function="internal">
        <lane id=":1093685773_2_0" index="0" disallow="tram rail_urban rail rail_electric rail_fast ship" speed="5.86" length="7.24" shape="1222.11,5056.35 1222.03,5053.88 1222.44,5052.08 1223.34,5050.93 1224.72,5050.45"/>
    </edge>
    <edge id=":1093685773_3" function="internal">
        <lane id=":1093685773_3_0" index="0" disallow="tram rail_urban rail rail_electric rail_fast ship" speed="13.89" length="14.37" shape="1222.11,5056.35 1220.39,5042.07"/>
        <lane id=":1093685773_3_1" index="1" disallow="tram rail_urban rail rail_electric rail_fast ship" speed="13.89" length="14.37" shape="1218.93,5056.72 1217.21,5042.47"/>
    </edge>
    <edge id=":1093685806_0" function="internal">
        <lane id=":1093685806_0_0" index="0" disallow="tram rail_urban rail rail_electric rail_fast ship" speed="6.87" length="9.63" shape="1278.10,5471.58 1275.35,5471.36 1273.29,5470.42 1271.93,5468.77 1271.25,5466.40"/>
    </edge>
    <edge id=":1093685806_1" function="internal">
        <lane id=":1093685806_1_0" index="0" disallow="tram rail_urban rail rail_electric rail_fast ship" speed="27.78" length="12.41" shape="1278.10,5471.58 1274.35,5471.73 1271.79,5471.87 1269.24,5472.18 1265.55,5472.83"/>
        <lane id=":1093685806_1_1" index="1" disallow="tram rail_urban rail rail_electric rail_fast ship" speed="27.78" length="12.41" shape="1278.25,5474.77 1274.63,5474.92 1272.16,5475.05 1269.70,5475.35 1266.14,5475.98"/>
    </edge>
    <edge id=":1093685806_3" function="internal">
        <lane id=":1093685806_3_0" index="0" disallow="tram rail_urban rail rail_electric rail_fast ship" speed="3.65" length="2.34" shape="1278.25,5474.77 1277.09,5475.63 1276.72,5476.44"/>
    </edge>
    <edge id=":1093685806_12" function="internal">
        <lane id=":1093685806_12_0" index="0" disallow="tram rail_urban rail rail_electric rail_fast ship" speed="3.65" length="2.34" shape="1276.72,5476.44 1277.16,5477.22 1278.39,5477.97"/>
    </edge>
    <edge id=":1093685806_4" function="internal">
        <lane id=":1093685806_4_0" index="0" disallow="tram rail_urban rail rail_electric rail_fast ship" speed="6.03" length="8.25" shape="1274.06,5486.60 1274.03,5484.31 1274.77,5482.64 1276.27,5481.60 1278.54,5481.17"/>
    </edge>
    <edge id=":1093685806_5" function="internal">
        <lane id=":1093685806_5_0" index="0" disallow="tram rail_urban rail rail_electric rail_fast ship" speed="13.89" length="20.46" shape="1274.06,5486.60 1271.25,5466.40"/>
        <lane id=":1093685806_5_1" index="1" disallow="tram rail_urban rail rail_electric rail_fast ship" speed="13.89" length="20.46" shape="1270.90,5487.10 1268.08,5466.78"/>
    </edge>
    <edge id=":1093685806_7" function="internal">
        <lane id=":1093685806_7_0" index="0" disallow="tram rail_urban rail rail_electric rail_fast ship" speed="7.53" length="12.73" shape="1270.90,5487.10 1269.91,5482.03 1268.78,5478.48 1267.53,5476.47 1266.14,5475.98"/>
    </edge>
    <edge id=":1093685806_8" function="internal">
        <lane id=":1093685806_8_0" index="0" disallow="tram rail_urban rail rail_electric rail_fast ship" speed="27.78" length="11.50" shape="1267.34,5482.27 1270.63,5481.69 1272.90,5481.42 1275.19,5481.30 1278.54,5481.17"/>
        <lane id=":1093685806_8_1" index="1" disallow="tram rail_urban rail rail_electric rail_fast ship" speed="27.78" length="11.50" shape="1266.74,5479.12 1270.17,5478.52 1272.53,5478.24 1274.91,5478.11 1278.39,5477.97"/>
    </edge>
    <edge id=":1093685806_10" function="internal">
        <lane id=":1093685806_10_0" index="0" disallow="tram rail_urban rail rail_electric rail_fast ship" speed="7.86" length="2.39" shape="1266.74,5479.12 1267.85,5478.16 1268.08,5477.26"/>
    </edge>
    <edge id=":1093685806_11" function="internal">
        <lane id=":1093685806_11_0" index="0" disallow="tram rail_urban rail rail_electric rail_fast ship" speed="3.65" length="2.34" shape="1266.74,5479.12 1267.77,5478.11 1268.02,5477.25"/>
    </edge>
    <edge id=":1093685806_13" function="internal">
        <lane id=":1093685806_13_0" index="0" disallow="tram rail_urban rail rail_electric rail_fast ship" speed="7.86" length="10.55" shape="1268.08,5477.26 1268.45,5475.78 1268.52,5471.98 1268.08,5466.78"/>
    </edge>
    <edge id=":1093685806_14" function="internal">
        <lane id=":1093685806_14_0" index="0" disallow="tram rail_urban rail rail_electric rail_fast ship" speed="3.65" length="2.34" shape="1268.02,5477.25 1267.47,5476.54 1266.14,5475.98"/>
    </edge>
    <edge id=":1093725241_0" function="internal">
        <lane id=":1093725241_0_0" index="0" disallow="tram rail_urban rail rail_electric rail_fast ship" speed="27.78" length="13.50" shape="1527.05,5432.25 1513.95,5435.26"/>
        <lane id=":1093725241_0_1" index="1" disallow="tram rail_urban rail rail_electric rail_fast ship" speed="27.78" length="13.50" shape="1527.85,5435.35 1514.63,5438.39"/>
    </edge>
    <edge id=":1093725241_2" function="internal">
        <lane id=":1093725241_2_0" index="0" disallow="tram rail_urban rail rail_electric rail_fast ship" speed="9.33" length="3.44" shape="1527.85,5435.35 1526.37,5436.22 1525.30,5437.58"/>
    </edge>
    <edge id=":1093725241_3" function="internal">
        <lane id=":1093725241_3_0" index="0" disallow="tram rail_urban rail rail_electric rail_fast ship" speed="3.65" length="2.34" shape="1527.85,5435.35 1526.88,5436.42 1526.70,5437.30"/>
    </edge>
    <edge id=":1093725241_11" function="internal">
        <lane id=":1093725241_11_0" index="0" disallow="tram rail_urban rail rail_electric rail_fast ship" speed="9.33" length="7.80" shape="1525.30,5437.58 1524.92,5438.06 1523.51,5440.88 1522.13,5444.66"/>
    </edge>
    <edge id=":1093725241_12" function="internal">
        <lane id=":1093725241_12_0" index="0" disallow="tram rail_urban rail rail_electric rail_fast ship" speed="3.65" length="2.34" shape="1526.70,5437.30 1527.28,5437.97 1528.64,5438.45"/>
    </edge>
    <edge id=":1093725241_4" function="internal">
        <lane id=":1093725241_4_0" index="0" disallow="tram rail_urban rail rail_electric rail_fast ship" speed="7.06" length="6.18" shape="1525.17,5445.64 1525.83,5444.16 1526.76,5442.99 1527.96,5442.12 1529.44,5441.55"/>
    </edge>
    <edge id=":1093725241_5" function="internal">
        <lane id=":1093725241_5_0" index="0" disallow="tram rail_urban rail rail_electric rail_fast ship" speed="7.47" length="17.30" shape="1525.17,5445.64 1525.78,5441.23 1524.22,5438.56 1520.51,5437.61 1514.63,5438.39"/>
    </edge>
    <edge id=":1093725241_6" function="internal">
        <lane id=":1093725241_6_0" index="0" disallow="tram rail_urban rail rail_electric rail_fast ship" speed="3.65" length="4.67" shape="1525.17,5445.64 1524.78,5444.25 1524.14,5443.63 1523.25,5443.76 1522.13,5444.66"/>
    </edge>
    <edge id=":1093725241_7" function="internal">
        <lane id=":1093725241_7_0" index="0" disallow="tram rail_urban rail rail_electric rail_fast ship" speed="4.91" length="6.64" shape="1516.01,5444.64 1518.88,5444.05 1520.85,5443.86 1521.93,5444.07 1522.13,5444.66"/>
    </edge>
    <edge id=":1093725241_8" function="internal">
        <lane id=":1093725241_8_0" index="0" disallow="tram rail_urban rail rail_electric rail_fast ship" speed="27.78" length="13.73" shape="1516.01,5444.64 1529.44,5441.55"/>
        <lane id=":1093725241_8_1" index="1" disallow="tram rail_urban rail rail_electric rail_fast ship" speed="27.78" length="13.73" shape="1515.32,5441.51 1528.64,5438.45"/>
    </edge>
    <edge id=":1093725241_10" function="internal">
        <lane id=":1093725241_10_0" index="0" disallow="tram rail_urban rail rail_electric rail_fast ship" speed="3.65" length="2.34" shape="1515.32,5441.51 1516.32,5440.48 1516.54,5439.61"/>
    </edge>
    <edge id=":1093725241_13" function="internal">
        <lane id=":1093725241_13_0" index="0" disallow="tram rail_urban rail rail_electric rail_fast ship" speed="3.65" length="2.34" shape="1516.54,5439.61 1515.98,5438.91 1514.63,5438.39"/>
    </edge>
    <edge id=":1093725294_0" function="internal">
        <lane id=":1093725294_0_0" index="0" disallow="tram rail_urban rail rail_electric rail_fast ship" speed="7.11" length="9.72" shape="1436.95,5636.13 1434.52,5636.37 1432.43,5635.73 1430.69,5634.20 1429.30,5631.80"/>
    </edge>
    <edge id=":1093725294_1" function="internal">
        <lane id=":1093725294_1_0" index="0" disallow="tram rail_urban rail rail_electric rail_fast ship" speed="13.89" length="14.39" shape="1436.95,5636.13 1423.11,5640.06"/>
    </edge>
    <edge id=":1093725294_2" function="internal">
        <lane id=":1093725294_2_0" index="0" disallow="tram rail_urban rail rail_electric rail_fast ship" speed="3.65" length="4.67" shape="1436.95,5636.13 1435.99,5637.21 1435.81,5638.08 1436.40,5638.75 1437.76,5639.22"/>
    </edge>
    <edge id=":1093725294_3" function="internal">
        <lane id=":1093725294_3_0" index="0" disallow="tram rail_urban rail rail_electric rail_fast ship" speed="13.89" length="14.27" shape="1424.04,5643.13 1437.76,5639.22"/>
    </edge>
    <edge id=":1093725294_4" function="internal">
        <lane id=":1093725294_4_0" index="0" disallow="tram rail_urban rail rail_electric rail_fast ship" speed="7.82" length="14.63" shape="1424.04,5643.13 1427.73,5641.40 1429.83,5638.93 1430.36,5635.73 1429.30,5631.80"/>
    </edge>
    <edge id=":1093725294_5" function="internal">
        <lane id=":1093725294_5_0" index="0" disallow="tram rail_urban rail rail_electric rail_fast ship" speed="3.65" length="2.56" shape="1424.04,5643.13 1424.95,5642.01 1425.10,5641.13 1424.95,5640.97"/>
    </edge>
    <edge id=":1093725294_9" function="internal">
        <lane id=":1093725294_9_0" index="0" disallow="tram rail_urban rail rail_electric rail_fast ship" speed="3.65" length="2.11" shape="1424.95,5640.97 1424.49,5640.48 1423.11,5640.06"/>
    </edge>
    <edge id=":1093725294_6" function="internal">
        <lane id=":1093725294_6_0" index="0" disallow="tram rail_urban rail rail_electric rail_fast ship" speed="6.28" length="9.04" shape="1426.36,5633.06 1427.01,5635.49 1426.69,5637.47 1425.39,5639.00 1423.11,5640.06"/>
    </edge>
    <edge id=":1093725294_7" function="internal">
        <lane id=":1093725294_7_0" index="0" disallow="tram rail_urban rail rail_electric rail_fast ship" speed="8.51" length="4.26" shape="1426.36,5633.06 1428.40,5636.53 1428.58,5636.69"/>
    </edge>
    <edge id=":1093725294_8" function="internal">
        <lane id=":1093725294_8_0" index="0" disallow="tram rail_urban rail rail_electric rail_fast ship" speed="3.65" length="2.08" shape="1426.36,5633.06 1427.57,5633.85 1428.20,5633.89"/>
    </edge>
    <edge id=":1093725294_10" function="internal">
        <lane id=":1093725294_10_0" index="0" disallow="tram rail_urban rail rail_electric rail_fast ship" speed="8.51" length="10.07" shape="1428.58,5636.69 1430.98,5638.71 1434.10,5639.61 1437.76,5639.22"/>
    </edge>
    <edge id=":1093725294_11" function="internal">
        <lane id=":1093725294_11_0" index="0" disallow="tram rail_urban rail rail_electric rail_fast ship" speed="3.65" length="2.59" shape="1428.20,5633.89 1428.46,5633.90 1429.04,5633.22 1429.30,5631.80"/>
    </edge>
    <edge id=":1093725295_0" function="internal">
        <lane id=":1093725295_0_0" index="0" disallow="tram rail_urban rail rail_electric rail_fast ship" speed="6.25" length="7.38" shape="1323.38,5668.74 1321.83,5668.61 1320.53,5667.77 1319.46,5666.22 1318.63,5663.97"/>
    </edge>
    <edge id=":1093725295_1" function="internal">
        <lane id=":1093725295_1_0" index="0" disallow="tram rail_urban rail rail_electric rail_fast ship" speed="3.65" length="4.67" shape="1323.38,5668.74 1322.29,5669.69 1322.00,5670.53 1322.50,5671.28 1323.79,5671.91"/>
    </edge>
    <edge id=":1093725295_2" function="internal">
        <lane id=":1093725295_2_0" index="0" disallow="tram rail_urban rail rail_electric rail_fast ship" speed="5.59" length="6.98" shape="1322.33,5677.92 1321.88,5675.43 1321.97,5673.61 1322.61,5672.43 1323.79,5671.91"/>
    </edge>
    <edge id=":1093725295_3" function="internal">
        <lane id=":1093725295_3_0" index="0" disallow="tram rail_urban rail rail_electric rail_fast ship" speed="13.89" length="14.41" shape="1322.33,5677.92 1318.63,5663.97"/>
        <lane id=":1093725295_3_1" index="1" disallow="tram rail_urban rail rail_electric rail_fast ship" speed="13.89" length="14.41" shape="1319.23,5678.72 1315.54,5664.82"/>
    </edge>
    <edge id=":1093725303_0" function="internal">
        <lane id=":1093725303_0_0" index="0" disallow="tram rail_urban rail rail_electric rail_fast ship" speed="13.89" length="9.29" shape="1469.10,5627.69 1460.12,5630.04"/>
    </edge>
    <edge id=":1093725303_1" function="internal">
        <lane id=":1093725303_1_0" index="0" disallow="tram rail_urban rail rail_electric rail_fast ship" speed="6.88" length="3.05" shape="1469.10,5627.69 1467.58,5628.68 1467.18,5629.84"/>
    </edge>
    <edge id=":1093725303_2" function="internal">
        <lane id=":1093725303_2_0" index="0" disallow="tram rail_urban rail rail_electric rail_fast ship" speed="3.65" length="2.34" shape="1469.10,5627.69 1468.14,5628.76 1467.96,5629.64"/>
    </edge>
    <edge id=":1093725303_9" function="internal">
        <lane id=":1093725303_9_0" index="0" disallow="tram rail_urban rail rail_electric rail_fast ship" speed="6.88" length="7.72" shape="1467.18,5629.84 1466.91,5630.62 1467.11,5633.52 1468.16,5637.38"/>
    </edge>
    <edge id=":1093725303_10" function="internal">
        <lane id=":1093725303_10_0" index="0" disallow="tram rail_urban rail rail_electric rail_fast ship" speed="3.65" length="2.34" shape="1467.96,5629.64 1468.55,5630.31 1469.91,5630.78"/>
    </edge>
    <edge id=":1093725303_3" function="internal">
        <lane id=":1093725303_3_0" index="0" disallow="tram rail_urban rail rail_electric rail_fast ship" speed="5.26" length="5.85" shape="1471.19,5636.34 1470.72,5635.11 1470.07,5633.30 1469.66,5631.62 1469.91,5630.78"/>
    </edge>
    <edge id=":1093725303_4" function="internal">
        <lane id=":1093725303_4_0" index="0" disallow="tram rail_urban rail rail_electric rail_fast ship" speed="8.25" length="14.30" shape="1471.19,5636.34 1469.41,5632.78 1466.98,5630.54 1463.88,5629.63 1460.12,5630.04"/>
    </edge>
    <edge id=":1093725303_5" function="internal">
        <lane id=":1093725303_5_0" index="0" disallow="tram rail_urban rail rail_electric rail_fast ship" speed="3.65" length="4.67" shape="1471.19,5636.34 1470.04,5635.47 1469.16,5635.35 1468.53,5635.98 1468.16,5637.38"/>
    </edge>
    <edge id=":1093725303_6" function="internal">
        <lane id=":1093725303_6_0" index="0" disallow="tram rail_urban rail rail_electric rail_fast ship" speed="6.80" length="9.41" shape="1460.93,5633.14 1463.37,5632.88 1465.39,5633.50 1466.99,5635.00 1468.16,5637.38"/>
    </edge>
    <edge id=":1093725303_7" function="internal">
        <lane id=":1093725303_7_0" index="0" disallow="tram rail_urban rail rail_electric rail_fast ship" speed="13.89" length="9.29" shape="1460.93,5633.14 1469.91,5630.78"/>
    </edge>
    <edge id=":1093725303_8" function="internal">
        <lane id=":1093725303_8_0" index="0" disallow="tram rail_urban rail rail_electric rail_fast ship" speed="3.65" length="2.34" shape="1460.93,5633.14 1461.89,5632.06 1462.07,5631.19"/>
    </edge>
    <edge id=":1093725303_11" function="internal">
        <lane id=":1093725303_11_0" index="0" disallow="tram rail_urban rail rail_electric rail_fast ship" speed="3.65" length="2.34" shape="1462.07,5631.19 1461.48,5630.51 1460.12,5630.04"/>
    </edge>
    <edge id=":1093725324_0" function="internal">
        <lane id=":1093725324_0_0" index="0" disallow="tram rail_urban rail rail_electric rail_fast ship" speed="7.42" length="10.11" shape="1478.38,5625.44 1475.95,5625.59 1473.82,5624.86 1471.98,5623.23 1470.43,5620.71"/>
    </edge>
    <edge id=":1093725324_1" function="internal">
        <lane id=":1093725324_1_0" index="0" disallow="tram rail_urban rail rail_electric rail_fast ship" speed="13.89" length="9.35" shape="1478.38,5625.44 1469.29,5627.63"/>
    </edge>