<?xml version="1.0" encoding="UTF-8"?>

<!-- generated on Sat Jul 25 10:40:37 2020 by Eclipse SUMO netconvert Version 642d16a7a5
<configuration xmlns:xsi="http://www.w3.org/2001/XMLSchema-instance" xsi:noNamespaceSchemaLocation="http://sumo.dlr.de/xsd/netconvertConfiguration.xsd">

    <input>
        <type-files value="/home/tomoya/sumo/data/typemap/osmNetconvert.typ.xml"/>
        <osm-files value="osm_bbox.osm.xml"/>
    </input>

    <output>
        <output-file value="osm.net.xml"/>
        <output.street-names value="true"/>
        <output.original-names value="true"/>
    </output>

    <projection>
        <proj.utm value="true"/>
    </projection>

    <processing>
        <geometry.remove value="true"/>
        <roundabouts.guess value="true"/>
        <lefthand value="true"/>
    </processing>

    <tls_building>
        <tls.discard-simple value="true"/>
        <tls.join value="true"/>
        <tls.guess-signals value="true"/>
        <tls.default-type value="actuated"/>
    </tls_building>

    <ramp_guessing>
        <ramps.guess value="true"/>
    </ramp_guessing>

    <edge_removal>
        <keep-edges.by-vclass value="passenger"/>
    </edge_removal>

    <junctions>
        <junctions.join value="true"/>
        <junctions.corner-detail value="5"/>
    </junctions>

    <report>
        <verbose value="true"/>
        <aggregate-warnings value="5"/>
    </report>

</configuration>
-->

<net version="1.6" junctionCornerDetail="5" lefthand="true" limitTurnSpeed="5.50" xmlns:xsi="http://www.w3.org/2001/XMLSchema-instance" xsi:noNamespaceSchemaLocation="http://sumo.dlr.de/xsd/net_file.xsd">

    <location netOffset="-381960.93,-3951189.10" convBoundary="0.00,-0.00,2312.98,1694.52" origBoundary="139.669340,35.658965,139.775745,35.733383" projParameter="+proj=utm +zone=54 +ellps=WGS84 +datum=WGS84 +units=m +no_defs"/>

    <type id="highway.bridleway" priority="1" numLanes="1" speed="2.78" allow="pedestrian" oneway="1" width="2.00"/>
    <type id="highway.bus_guideway" priority="1" numLanes="1" speed="27.78" allow="bus" oneway="1"/>
    <type id="highway.cycleway" priority="1" numLanes="1" speed="8.33" allow="bicycle" oneway="0" width="1.00"/>
    <type id="highway.footway" priority="1" numLanes="1" speed="2.78" allow="pedestrian" oneway="1" width="2.00"/>
    <type id="highway.ford" priority="1" numLanes="1" speed="2.78" allow="army" oneway="0"/>
    <type id="highway.living_street" priority="2" numLanes="1" speed="2.78" disallow="tram rail_urban rail rail_electric rail_fast ship" oneway="0"/>
    <type id="highway.motorway" priority="14" numLanes="2" speed="39.44" allow="private emergency authority army vip passenger hov taxi bus coach delivery truck trailer motorcycle evehicle custom1 custom2" oneway="1"/>
    <type id="highway.motorway_link" priority="9" numLanes="1" speed="22.22" allow="private emergency authority army vip passenger hov taxi bus coach delivery truck trailer motorcycle evehicle custom1 custom2" oneway="1"/>
    <type id="highway.path" priority="1" numLanes="1" speed="2.78" allow="pedestrian bicycle" oneway="1" width="2.00"/>
    <type id="highway.pedestrian" priority="1" numLanes="1" speed="2.78" allow="pedestrian" oneway="1" width="2.00"/>
    <type id="highway.primary" priority="12" numLanes="2" speed="27.78" disallow="tram rail_urban rail rail_electric rail_fast ship" oneway="0"/>
    <type id="highway.primary_link" priority="7" numLanes="1" speed="22.22" disallow="tram rail_urban rail rail_electric rail_fast ship" oneway="0"/>
    <type id="highway.raceway" priority="15" numLanes="2" speed="83.33" allow="vip" oneway="0"/>
    <type id="highway.residential" priority="3" numLanes="1" speed="13.89" disallow="tram rail_urban rail rail_electric rail_fast ship" oneway="0"/>
    <type id="highway.secondary" priority="11" numLanes="1" speed="27.78" disallow="tram rail_urban rail rail_electric rail_fast ship" oneway="0"/>
    <type id="highway.secondary_link" priority="6" numLanes="1" speed="22.22" disallow="tram rail_urban rail rail_electric rail_fast ship" oneway="0"/>
    <type id="highway.service" priority="1" numLanes="1" speed="5.56" allow="pedestrian delivery bicycle" oneway="0"/>
    <type id="highway.stairs" priority="1" numLanes="1" speed="1.39" allow="pedestrian" oneway="1" width="2.00"/>
    <type id="highway.step" priority="1" numLanes="1" speed="1.39" allow="pedestrian" oneway="1" width="2.00"/>
    <type id="highway.steps" priority="1" numLanes="1" speed="1.39" allow="pedestrian" oneway="1" width="2.00"/>
    <type id="highway.tertiary" priority="10" numLanes="1" speed="22.22" disallow="tram rail_urban rail rail_electric rail_fast ship" oneway="0"/>
    <type id="highway.tertiary_link" priority="5" numLanes="1" speed="22.22" disallow="tram rail_urban rail rail_electric rail_fast ship" oneway="0"/>
    <type id="highway.track" priority="1" numLanes="1" speed="5.56" allow="pedestrian motorcycle moped bicycle" oneway="0"/>
    <type id="highway.trunk" priority="13" numLanes="2" speed="27.78" disallow="pedestrian bicycle tram rail_urban rail rail_electric rail_fast ship" oneway="0"/>
    <type id="highway.trunk_link" priority="8" numLanes="1" speed="22.22" disallow="pedestrian bicycle tram rail_urban rail rail_electric rail_fast ship" oneway="0"/>
    <type id="highway.unclassified" priority="4" numLanes="1" speed="13.89" disallow="tram rail_urban rail rail_electric rail_fast ship" oneway="0"/>
    <type id="highway.unsurfaced" priority="1" numLanes="1" speed="8.33" disallow="tram rail_urban rail rail_electric rail_fast ship" oneway="0"/>
    <type id="railway.highspeed" priority="21" numLanes="1" speed="69.44" allow="rail_fast" oneway="1"/>
    <type id="railway.light_rail" priority="19" numLanes="1" speed="27.78" allow="rail_urban" oneway="1"/>
    <type id="railway.preserved" priority="16" numLanes="1" speed="27.78" allow="rail" oneway="1"/>
    <type id="railway.rail" priority="20" numLanes="1" speed="44.44" allow="rail" oneway="1"/>
    <type id="railway.subway" priority="18" numLanes="1" speed="27.78" allow="rail_urban" oneway="1"/>
    <type id="railway.tram" priority="17" numLanes="1" speed="13.89" allow="tram" oneway="1"/>

    <edge id=":1093469771_0" function="internal">
        <lane id=":1093469771_0_0" index="0" disallow="tram rail_urban rail rail_electric rail_fast ship" speed="5.92" length="9.10" shape="1628.56,1381.20 1630.89,1380.00 1632.82,1379.98 1634.34,1381.17 1635.45,1383.54"/>
    </edge>
    <edge id=":1093469771_1" function="internal">
        <lane id=":1093469771_1_0" index="0" disallow="tram rail_urban rail rail_electric rail_fast ship" speed="11.11" length="11.49" shape="1628.56,1381.20 1637.98,1374.73"/>
        <lane id=":1093469771_1_1" index="1" disallow="tram rail_urban rail rail_electric rail_fast ship" speed="11.11" length="11.49" shape="1626.71,1378.59 1636.23,1372.05"/>
    </edge>
    <edge id=":1093626281_0" function="internal">
        <lane id=":1093626281_0_0" index="0" disallow="tram rail_urban rail rail_electric rail_fast ship" speed="6.64" length="9.21" shape="1956.09,1327.71 1953.54,1327.97 1951.51,1327.38 1950.00,1325.96 1949.01,1323.70"/>
    </edge>
    <edge id=":1093626281_1" function="internal">
        <lane id=":1093626281_1_0" index="0" disallow="tram rail_urban rail rail_electric rail_fast ship" speed="3.65" length="4.67" shape="1956.09,1327.71 1955.10,1328.77 1954.90,1329.64 1955.48,1330.32 1956.83,1330.82"/>
    </edge>
    <edge id=":1093626281_2" function="internal">
        <lane id=":1093626281_2_0" index="0" disallow="tram rail_urban rail rail_electric rail_fast ship" speed="6.42" length="9.04" shape="1952.86,1337.59 1952.53,1335.13 1953.08,1333.18 1954.52,1331.74 1956.83,1330.82"/>
    </edge>
    <edge id=":1093626281_3" function="internal">
        <lane id=":1093626281_3_0" index="0" disallow="tram rail_urban rail rail_electric rail_fast ship" speed="11.11" length="14.43" shape="1952.86,1337.59 1949.01,1323.70"/>
        <lane id=":1093626281_3_1" index="1" disallow="tram rail_urban rail rail_electric rail_fast ship" speed="11.11" length="14.43" shape="1949.78,1338.46 1945.92,1324.54"/>
    </edge>
    <edge id=":1093626646_0" function="internal">
        <lane id=":1093626646_0_0" index="0" disallow="tram rail_urban rail rail_electric rail_fast ship" speed="3.65" length="4.67" shape="963.59,1695.36 964.90,1695.96 965.79,1695.88 966.26,1695.12 966.31,1693.68"/>
    </edge>
    <edge id=":1093626655_0" function="internal">
        <lane id=":1093626655_0_0" index="0" disallow="tram rail_urban rail rail_electric rail_fast ship" speed="3.65" length="4.67" shape="2290.39,1511.58 2291.83,1511.64 2292.62,1511.23 2292.77,1510.34 2292.27,1508.99"/>
    </edge>
    <edge id=":1093626771_0" function="internal">
        <lane id=":1093626771_0_0" index="0" disallow="tram rail_urban rail rail_electric rail_fast ship" speed="6.30" length="9.04" shape="827.07,1378.67 824.67,1379.41 822.68,1379.16 821.10,1377.92 819.92,1375.70"/>
    </edge>
    <edge id=":1093626771_1" function="internal">
        <lane id=":1093626771_1_0" index="0" disallow="tram rail_urban rail rail_electric rail_fast ship" speed="8.43" length="14.32" shape="827.07,1378.67 823.69,1380.83 821.64,1383.49 820.91,1386.64 821.51,1390.30"/>
    </edge>
    <edge id=":1093626771_2" function="internal">
        <lane id=":1093626771_2_0" index="0" disallow="tram rail_urban rail rail_electric rail_fast ship" speed="3.65" length="4.67" shape="827.07,1378.67 826.33,1379.90 826.31,1380.80 827.01,1381.35 828.44,1381.56"/>
    </edge>
    <edge id=":1093626771_3" function="internal">
        <lane id=":1093626771_3_0" index="0" disallow="tram rail_urban rail rail_electric rail_fast ship" speed="7.02" length="9.63" shape="824.56,1389.32 824.18,1386.91 824.70,1384.81 826.12,1383.03 828.44,1381.56"/>
    </edge>
    <edge id=":1093626771_4" function="internal">
        <lane id=":1093626771_4_0" index="0" disallow="tram rail_urban rail rail_electric rail_fast ship" speed="13.89" length="14.39" shape="824.56,1389.32 819.92,1375.70"/>
    </edge>
    <edge id=":1093626771_5" function="internal">
        <lane id=":1093626771_5_0" index="0" disallow="tram rail_urban rail rail_electric rail_fast ship" speed="3.65" length="2.34" shape="824.56,1389.32 823.43,1388.43 822.54,1388.29"/>
    </edge>
    <edge id=":1093626771_9" function="internal">
        <lane id=":1093626771_9_0" index="0" disallow="tram rail_urban rail rail_electric rail_fast ship" speed="3.65" length="2.34" shape="822.54,1388.29 821.90,1388.92 821.51,1390.30"/>
    </edge>
    <edge id=":1093626771_6" function="internal">
        <lane id=":1093626771_6_0" index="0" disallow="tram rail_urban rail rail_electric rail_fast ship" speed="13.89" length="14.29" shape="816.91,1376.77 821.51,1390.30"/>
    </edge>
    <edge id=":1093626771_7" function="internal">
        <lane id=":1093626771_7_0" index="0" disallow="tram rail_urban rail rail_electric rail_fast ship" speed="7.83" length="5.81" shape="816.91,1376.77 818.80,1380.36 820.19,1381.44"/>
    </edge>
    <edge id=":1093626771_8" function="internal">
        <lane id=":1093626771_8_0" index="0" disallow="tram rail_urban rail rail_electric rail_fast ship" speed="3.65" length="2.34" shape="816.91,1376.77 818.07,1377.63 818.95,1377.74"/>
    </edge>
    <edge id=":1093626771_10" function="internal">
        <lane id=":1093626771_10_0" index="0" disallow="tram rail_urban rail rail_electric rail_fast ship" speed="7.83" length="8.77" shape="820.19,1381.44 821.35,1382.35 824.57,1382.75 828.44,1381.56"/>
    </edge>
    <edge id=":1093626771_11" function="internal">
        <lane id=":1093626771_11_0" index="0" disallow="tram rail_urban rail rail_electric rail_fast ship" speed="3.65" length="2.34" shape="818.95,1377.74 819.57,1377.10 819.92,1375.70"/>
    </edge>
    <edge id=":1093685728_0" function="internal">
        <lane id=":1093685728_0_0" index="0" disallow="tram rail_urban rail rail_electric rail_fast ship" speed="6.51" length="9.03" shape="1162.97,477.66 1165.45,477.62 1167.34,478.39 1168.65,479.96 1169.37,482.32"/>
    </edge>
    <edge id=":1093685728_1" function="internal">
        <lane id=":1093685728_1_0" index="0" disallow="tram rail_urban rail rail_electric rail_fast ship" speed="3.65" length="4.67" shape="1162.97,477.66 1164.03,476.68 1164.30,475.83 1163.78,475.10 1162.47,474.49"/>
    </edge>
    <edge id=":1093685728_2" function="internal">
        <lane id=":1093685728_2_0" index="0" disallow="tram rail_urban rail rail_electric rail_fast ship" speed="6.58" length="9.10" shape="1167.33,468.11 1167.29,470.57 1166.48,472.46 1164.87,473.77 1162.47,474.49"/>
    </edge>
    <edge id=":1093685728_3" function="internal">
        <lane id=":1093685728_3_0" index="0" disallow="tram rail_urban rail rail_electric rail_fast ship" speed="13.89" length="14.32" shape="1167.33,468.11 1169.37,482.32"/>
        <lane id=":1093685728_3_1" index="1" disallow="tram rail_urban rail rail_electric rail_fast ship" speed="13.89" length="14.32" shape="1170.50,467.69 1172.53,481.83"/>
    </edge>
    <edge id=":1093685736_0" function="internal">
        <lane id=":1093685736_0_0" index="0" disallow="tram rail_urban rail rail_electric rail_fast ship" speed="3.92" length="2.32" shape="1356.97,1519.72 1356.34,1519.72 1355.84,1519.53 1355.47,1519.15 1355.22,1518.57"/>
    </edge>
    <edge id=":1093685736_1" function="internal">
        <lane id=":1093685736_1_0" index="0" disallow="tram rail_urban rail rail_electric rail_fast ship" speed="6.10" length="6.96" shape="1357.39,1522.90 1355.51,1522.89 1354.01,1522.31 1352.89,1521.16 1352.14,1519.44"/>
    </edge>
    <edge id=":1093685773_0" function="internal">
        <lane id=":1093685773_0_0" index="0" disallow="tram rail_urban rail rail_electric rail_fast ship" speed="6.04" length="9.31" shape="1226.60,756.20 1224.20,756.80 1222.36,756.29 1221.09,754.65 1220.39,751.89"/>
    </edge>
    <edge id=":1093685773_1" function="internal">
        <lane id=":1093685773_1_0" index="0" disallow="tram rail_urban rail rail_electric rail_fast ship" speed="3.71" length="4.91" shape="1226.60,756.20 1225.44,757.16 1225.10,758.04 1225.61,758.83 1226.94,759.54"/>
    </edge>
    <edge id=":1093685773_2" function="internal">
        <lane id=":1093685773_2_0" index="0" disallow="tram rail_urban rail rail_electric rail_fast ship" speed="7.24" length="8.84" shape="1222.11,766.17 1222.22,764.14 1223.07,762.36 1224.64,760.82 1226.94,759.54"/>
    </edge>
    <edge id=":1093685773_3" function="internal">
        <lane id=":1093685773_3_0" index="0" disallow="tram rail_urban rail rail_electric rail_fast ship" speed="13.89" length="14.37" shape="1222.11,766.17 1220.39,751.89"/>
        <lane id=":1093685773_3_1" index="1" disallow="tram rail_urban rail rail_electric rail_fast ship" speed="13.89" length="14.37" shape="1218.93,766.53 1217.21,752.29"/>
    </edge>
    <edge id=":1093725243_0" function="internal">
        <lane id=":1093725243_0_0" index="0" disallow="tram rail_urban rail rail_electric rail_fast ship" speed="13.89" length="14.11" shape="1923.12,1345.57 1921.75,1348.95 1920.29,1352.11 1918.44,1354.98 1915.93,1357.51"/>
    </edge>
    <edge id=":1093725243_1" function="internal">
        <lane id=":1093725243_1_0" index="0" disallow="tram rail_urban rail rail_electric rail_fast ship" speed="7.38" length="17.70" shape="1923.12,1345.57 1921.72,1350.84 1922.59,1354.12 1925.73,1355.42 1931.13,1354.73"/>
    </edge>
    <edge id=":1093725243_2" function="internal">
        <lane id=":1093725243_2_0" index="0" disallow="tram rail_urban rail rail_electric rail_fast ship" speed="3.65" length="4.67" shape="1923.12,1345.57 1923.41,1346.98 1924.00,1347.65 1924.89,1347.58 1926.08,1346.77"/>
    </edge>
    <edge id=":1093725243_3" function="internal">
        <lane id=":1093725243_3_0" index="0" disallow="tram rail_urban rail rail_electric rail_fast ship" speed="5.56" length="9.39" shape="1930.34,1351.63 1927.47,1352.00 1925.80,1351.31 1925.34,1349.57 1926.08,1346.77"/>
    </edge>
    <edge id=":1093725243_4" function="internal">
        <lane id=":1093725243_4_0" index="0" disallow="tram rail_urban rail rail_electric rail_fast ship" speed="13.89" length="15.66" shape="1930.34,1351.63 1926.59,1352.64 1922.79,1353.87 1919.15,1355.45 1915.93,1357.51"/>
    </edge>
    <edge id=":1093725243_5" function="internal">
        <lane id=":1093725243_5_0" index="0" disallow="tram rail_urban rail rail_electric rail_fast ship" speed="3.65" length="2.34" shape="1930.34,1351.63 1929.37,1352.71 1929.19,1353.58"/>
    </edge>
    <edge id=":1093725243_9" function="internal">
        <lane id=":1093725243_9_0" index="0" disallow="tram rail_urban rail rail_electric rail_fast ship" speed="3.65" length="2.34" shape="1929.19,1353.58 1929.77,1354.26 1931.13,1354.73"/>
    </edge>
    <edge id=":1093725243_6" function="internal">
        <lane id=":1093725243_6_0" index="0" disallow="tram rail_urban rail rail_electric rail_fast ship" speed="13.89" length="14.35" shape="1917.91,1360.02 1920.95,1358.06 1924.18,1356.68 1927.58,1355.65 1931.13,1354.73"/>
    </edge>
    <edge id=":1093725243_7" function="internal">
        <lane id=":1093725243_7_0" index="0" disallow="tram rail_urban rail rail_electric rail_fast ship" speed="13.89" length="5.01" shape="1917.91,1360.02 1920.58,1357.29 1921.23,1356.29"/>
    </edge>
    <edge id=":1093725243_8" function="internal">
        <lane id=":1093725243_8_0" index="0" disallow="tram rail_urban rail rail_electric rail_fast ship" speed="3.65" length="2.15" shape="1917.91,1360.02 1918.36,1358.64 1918.21,1357.95"/>
    </edge>
    <edge id=":1093725243_10" function="internal">
        <lane id=":1093725243_10_0" index="0" disallow="tram rail_urban rail rail_electric rail_fast ship" speed="13.89" length="10.71" shape="1921.23,1356.29 1922.76,1353.97 1924.57,1350.36 1926.08,1346.77"/>
    </edge>
    <edge id=":1093725243_11" function="internal">
        <lane id=":1093725243_11_0" index="0" disallow="tram rail_urban rail rail_electric rail_fast ship" speed="3.65" length="2.52" shape="1918.21,1357.95 1918.17,1357.77 1917.36,1357.39 1915.93,1357.51"/>
    </edge>
    <edge id=":1093725246_0" function="internal">
        <lane id=":1093725246_0_0" index="0" disallow="tram rail_urban rail rail_electric rail_fast ship" speed="6.85" length="9.68" shape="1680.81,1357.12 1680.64,1354.33 1681.28,1352.14 1682.73,1350.57 1685.00,1349.61"/>
    </edge>
    <edge id=":1093725246_1" function="internal">
        <lane id=":1093725246_1_0" index="0" disallow="tram rail_urban rail rail_electric rail_fast ship" speed="3.65" length="4.67" shape="1680.81,1357.12 1679.80,1356.08 1678.94,1355.84 1678.23,1356.38 1677.67,1357.71"/>
    </edge>
    <edge id=":1093725246_2" function="internal">
        <lane id=":1093725246_2_0" index="0" disallow="tram rail_urban rail rail_electric rail_fast ship" speed="6.16" length="9.05" shape="1671.05,1353.98 1673.53,1353.43 1675.47,1353.87 1676.84,1355.30 1677.67,1357.71"/>
    </edge>
    <edge id=":1093725246_3" function="internal">
        <lane id=":1093725246_3_0" index="0" disallow="tram rail_urban rail rail_electric rail_fast ship" speed="11.11" length="14.82" shape="1671.05,1353.98 1675.12,1352.46 1677.93,1351.49 1680.79,1350.67 1685.00,1349.61"/>
        <lane id=":1093725246_3_1" index="1" disallow="tram rail_urban rail rail_electric rail_fast ship" speed="11.11" length="14.82" shape="1669.92,1350.98 1674.10,1349.42 1676.98,1348.43 1679.91,1347.59 1684.23,1346.50"/>
    </edge>
    <edge id=":1093725256_0" function="internal">
        <lane id=":1093725256_0_0" index="0" disallow="tram rail_urban rail rail_electric rail_fast ship" speed="13.89" length="9.42" shape="1763.37,1393.64 1772.59,1391.69"/>
    </edge>
    <edge id=":1093725256_1" function="internal">
        <lane id=":1093725256_1_0" index="0" disallow="tram rail_urban rail rail_electric rail_fast ship" speed="6.19" length="7.84" shape="1763.37,1393.64 1766.01,1392.89 1767.82,1391.90 1768.81,1390.68 1768.96,1389.22"/>
    </edge>
    <edge id=":1093725256_2" function="internal">
        <lane id=":1093725256_2_0" index="0" disallow="tram rail_urban rail rail_electric rail_fast ship" speed="6.03" length="7.89" shape="1765.80,1389.75 1766.43,1391.10 1767.77,1391.88 1769.82,1392.07 1772.59,1391.69"/>
    </edge>
    <edge id=":1093725256_3" function="internal">
        <lane id=":1093725256_3_0" index="0" disallow="tram rail_urban rail rail_electric rail_fast ship" speed="3.65" length="4.67" shape="1765.80,1389.75 1766.79,1390.80 1767.64,1391.06 1768.37,1390.54 1768.96,1389.22"/>
    </edge>
    <edge id=":1093725294_0" function="internal">
        <lane id=":1093725294_0_0" index="0" disallow="tram rail_urban rail rail_electric rail_fast ship" speed="7.10" length="9.72" shape="1436.95,1345.94 1434.52,1346.18 1432.44,1345.54 1430.70,1344.02 1429.30,1341.61"/>
    </edge>
    <edge id=":1093725294_1" function="internal">
        <lane id=":1093725294_1_0" index="0" disallow="tram rail_urban rail rail_electric rail_fast ship" speed="13.89" length="14.39" shape="1436.95,1345.94 1423.11,1349.88"/>
    </edge>
    <edge id=":1093725294_2" function="internal">
        <lane id=":1093725294_2_0" index="0" disallow="tram rail_urban rail rail_electric rail_fast ship" speed="3.65" length="4.67" shape="1436.95,1345.94 1435.99,1347.02 1435.81,1347.90 1436.40,1348.57 1437.76,1349.04"/>
    </edge>
    <edge id=":1093725294_3" function="internal">
        <lane id=":1093725294_3_0" index="0" disallow="tram rail_urban rail rail_electric rail_fast ship" speed="13.89" length="14.27" shape="1424.04,1352.94 1437.76,1349.04"/>
    </edge>
    <edge id=":1093725294_4" function="internal">
        <lane id=":1093725294_4_0" index="0" disallow="tram rail_urban rail rail_electric rail_fast ship" speed="7.81" length="14.63" shape="1424.04,1352.94 1427.73,1351.21 1429.84,1348.75 1430.36,1345.55 1429.30,1341.61"/>
    </edge>
    <edge id=":1093725294_5" function="internal">
        <lane id=":1093725294_5_0" index="0" disallow="tram rail_urban rail rail_electric rail_fast ship" speed="3.65" length="2.56" shape="1424.04,1352.94 1424.96,1351.83 1425.11,1350.95 1424.95,1350.78"/>
    </edge>
    <edge id=":1093725294_9" function="internal">
        <lane id=":1093725294_9_0" index="0" disallow="tram rail_urban rail rail_electric rail_fast ship" speed="3.65" length="2.11" shape="1424.95,1350.78 1424.49,1350.30 1423.11,1349.88"/>
    </edge>
    <edge id=":1093725294_6" function="internal">
        <lane id=":1093725294_6_0" index="0" disallow="tram rail_urban rail rail_electric rail_fast ship" speed="6.28" length="9.04" shape="1426.36,1342.88 1427.02,1345.31 1426.69,1347.29 1425.39,1348.81 1423.11,1349.88"/>
    </edge>
    <edge id=":1093725294_7" function="internal">
        <lane id=":1093725294_7_0" index="0" disallow="tram rail_urban rail rail_electric rail_fast ship" speed="8.51" length="4.26" shape="1426.36,1342.88 1428.40,1346.35 1428.58,1346.50"/>
    </edge>
    <edge id=":1093725294_8" function="internal">
        <lane id=":1093725294_8_0" index="0" disallow="tram rail_urban rail rail_electric rail_fast ship" speed="3.65" length="2.08" shape="1426.36,1342.88 1427.57,1343.67 1428.21,1343.70"/>
    </edge>
    <edge id=":1093725294_10" function="internal">
        <lane id=":1093725294_10_0" index="0" disallow="tram rail_urban rail rail_electric rail_fast ship" speed="8.51" length="10.07" shape="1428.58,1346.50 1430.98,1348.53 1434.10,1349.43 1437.76,1349.04"/>
    </edge>
    <edge id=":1093725294_11" function="internal">
        <lane id=":1093725294_11_0" index="0" disallow="tram rail_urban rail rail_electric rail_fast ship" speed="3.65" length="2.59" shape="1428.21,1343.70 1428.46,1343.72 1429.04,1343.03 1429.30,1341.61"/>
    </edge>
    <edge id=":1093725295_0" function="internal">
        <lane id=":1093725295_0_0" index="0" disallow="tram rail_urban rail rail_electric rail_fast ship" speed="6.73" length="9.73" shape="1326.15,1377.80 1323.44,1378.17 1321.29,1377.62 1319.68,1376.16 1318.63,1373.78"/>
    </edge>
    <edge id=":1093725295_1" function="internal">
        <lane id=":1093725295_1_0" index="0" disallow="tram rail_urban rail rail_electric rail_fast ship" speed="3.66" length="4.72" shape="1326.15,1377.80 1325.06,1378.76 1324.76,1379.62 1325.27,1380.36 1326.57,1381.01"/>
    </edge>
    <edge id=":1093725295_2" function="internal">
        <lane id=":1093725295_2_0" index="0" disallow="tram rail_urban rail rail_electric rail_fast ship" speed="6.54" length="9.03" shape="1322.33,1387.73 1322.10,1385.37 1322.72,1383.46 1324.22,1382.00 1326.57,1381.01"/>
    </edge>
    <edge id=":1093725295_3" function="internal">
        <lane id=":1093725295_3_0" index="0" disallow="tram rail_urban rail rail_electric rail_fast ship" speed="13.89" length="14.41" shape="1322.33,1387.73 1318.63,1373.78"/>
        <lane id=":1093725295_3_1" index="1" disallow="tram rail_urban rail rail_electric rail_fast ship" speed="13.89" length="14.41" shape="1319.23,1388.53 1315.55,1374.63"/>
    </edge>
    <edge id=":1093725300_0" function="internal">
        <lane id=":1093725300_0_0" index="0" disallow="tram rail_urban rail rail_electric rail_fast ship" speed="13.89" length="9.27" shape="1685.31,1410.81 1694.27,1408.47"/>
    </edge>
    <edge id=":1093725300_1" function="internal">
        <lane id=":1093725300_1_0" index="0" disallow="tram rail_urban rail rail_electric rail_fast ship" speed="6.09" length="7.97" shape="1685.31,1410.81 1687.90,1410.11 1689.65,1409.09 1690.54,1407.75 1690.58,1406.10"/>
    </edge>
    <edge id=":1093725300_2" function="internal">
        <lane id=":1093725300_2_0" index="0" disallow="tram rail_urban rail rail_electric rail_fast ship" speed="6.07" length="7.79" shape="1687.45,1406.77 1688.13,1408.03 1689.49,1408.73 1691.54,1408.88 1694.27,1408.47"/>
    </edge>
    <edge id=":1093725300_3" function="internal">
        <lane id=":1093725300_3_0" index="0" disallow="tram rail_urban rail rail_electric rail_fast ship" speed="3.65" length="4.67" shape="1687.45,1406.77 1688.49,1407.77 1689.35,1408.00 1690.05,1407.44 1690.58,1406.10"/>
    </edge>
    <edge id=":1093725318_0" function="internal">
        <lane id=":1093725318_0_0" index="0" disallow="tram rail_urban rail rail_electric rail_fast ship" speed="3.65" length="0.53" shape="1914.84,1358.36 1914.68,1358.87"/>
    </edge>
    <edge id=":1093725318_2" function="internal">
        <lane id=":1093725318_2_0" index="0" disallow="tram rail_urban rail rail_electric rail_fast ship" speed="3.65" length="4.14" shape="1914.68,1358.87 1914.40,1359.74 1914.58,1360.61 1915.39,1360.99 1916.83,1360.87"/>
    </edge>
    <edge id=":1093725318_1" function="internal">
        <lane id=":1093725318_1_0" index="0" disallow="tram rail_urban rail rail_electric rail_fast ship" speed="13.51" length="5.30" shape="1911.60,1359.95 1916.83,1360.87"/>
    </edge>
    <edge id=":1093725328_0" function="internal">
        <lane id=":1093725328_0_0" index="0" disallow="tram rail_urban rail rail_electric rail_fast ship" speed="13.89" length="9.42" shape="1842.97,1376.30 1852.17,1374.23"/>
    </edge>
    <edge id=":1093725328_1" function="internal">
        <lane id=":1093725328_1_0" index="0" disallow="tram rail_urban rail rail_electric rail_fast ship" speed="6.33" length="7.91" shape="1842.97,1376.30 1845.58,1375.50 1847.39,1374.48 1848.38,1373.22 1848.57,1371.73"/>
    </edge>
    <edge id=":1093725328_2" function="internal">
        <lane id=":1093725328_2_0" index="0" disallow="tram rail_urban rail rail_electric rail_fast ship" speed="6.00" length="8.01" shape="1845.40,1372.15 1846.00,1373.59 1847.33,1374.42 1849.38,1374.63 1852.17,1374.23"/>
    </edge>
    <edge id=":1093725328_3" function="internal">
        <lane id=":1093725328_3_0" index="0" disallow="tram rail_urban rail rail_electric rail_fast ship" speed="3.65" length="4.67" shape="1845.40,1372.15 1846.35,1373.24 1847.20,1373.53 1847.94,1373.02 1848.57,1371.73"/>
    </edge>
    <edge id=":1093725338_0" function="internal">
        <lane id=":1093725338_0_0" index="0" disallow="tram rail_urban rail rail_electric rail_fast ship" speed="13.89" length="9.38" shape="1722.62,1402.12 1731.79,1400.15"/>
    </edge>
    <edge id=":1093725338_1" function="internal">
        <lane id=":1093725338_1_0" index="0" disallow="tram rail_urban rail rail_electric rail_fast ship" speed="6.19" length="7.79" shape="1722.62,1402.12 1725.24,1401.33 1727.04,1400.33 1728.01,1399.12 1728.16,1397.69"/>
    </edge>
    <edge id=":1093725338_2" function="internal">
        <lane id=":1093725338_2_0" index="0" disallow="tram rail_urban rail rail_electric rail_fast ship" speed="6.05" length="7.84" shape="1725.01,1398.25 1725.64,1399.56 1726.98,1400.32 1729.03,1400.51 1731.79,1400.15"/>
    </edge>
    <edge id=":1093725338_3" function="internal">
        <lane id=":1093725338_3_0" index="0" disallow="tram rail_urban rail rail_electric rail_fast ship" speed="3.65" length="4.67" shape="1725.01,1398.25 1726.00,1399.29 1726.86,1399.54 1727.58,1399.01 1728.16,1397.69"/>
    </edge>
    <edge id=":1093725366_0" function="internal">
        <lane id=":1093725366_0_0" index="0" disallow="tram rail_urban rail rail_electric rail_fast ship" speed="13.89" length="9.44" shape="1868.41,1370.58 1877.59,1368.41"/>
    </edge>
    <edge id=":1093725366_1" function="internal">
        <lane id=":1093725366_1_0" index="0" disallow="tram rail_urban rail rail_electric rail_fast ship" speed="6.13" length="7.83" shape="1868.41,1370.58 1871.05,1369.79 1872.84,1368.77 1873.78,1367.54 1873.87,1366.08"/>
    </edge>
    <edge id=":1093725366_2" function="internal">
        <lane id=":1093725366_2_0" index="0" disallow="tram rail_urban rail rail_electric rail_fast ship" speed="6.04" length="7.86" shape="1870.74,1366.74 1871.43,1368.05 1872.79,1368.76 1874.85,1368.88 1877.59,1368.41"/>
    </edge>